AquaCrop 6.0 (March 2017) - Output created on (date) : 14/07/2022   at (time) : 11:09:21

   Run:   1
   Day Month  Year   DAP Stage   WC(1.20)   Rain     Irri   Surf   Infilt   RO    Drain       CR    Zgwt       Ex       E     E/Ex     Trx       Tr  Tr/Trx    ETx      ET  ET/ETx      GD       Z     StExp  StSto  StSen StSalt StWeed   CC      CCw     StTr  Kc(Tr)     Trx       Tr      TrW  Tr/Trx   WP    Biomass     HI  YieldPart  Brelative    WPet  WC(1.20) Wr(0.80)     Z       Wr    Wr(SAT)    Wr(FC)   Wr(exp)   Wr(sto)   Wr(sen)   Wr(PWP)    SaltIn    SaltOut   SaltUp   Salt(1.20)  SaltZ     Z       ECe    ECsw   StSalt  Zgwt    ECgw       WC01       WC 2       WC 3       WC 4       WC 5       WC 6       WC 7       WC 8       WC 9       WC10       WC11       WC12      ECe01      ECe 2      ECe 3      ECe 4      ECe 5      ECe 6      ECe 7      ECe 8      ECe 9      ECe10      ECe11      ECe12     Rain       ETo      Tmin      Tavg      Tmax      CO2
                                      mm      mm       mm     mm     mm     mm       mm       mm      m        mm       mm     %        mm       mm    %        mm      mm       %    °C-day     m       %      %      %      %      %      %       %       %       -        mm       mm       mm    %     g/m2    ton/ha      %    ton/ha       %       kg/m3      mm       mm       m       mm        mm        mm        mm        mm        mm         mm    ton/ha    ton/ha    ton/ha    ton/ha    ton/ha     m      dS/m    dS/m      %     m      dS/m       0.05       0.15       0.25       0.35       0.45       0.55       0.65       0.75       0.85       0.95       1.05       1.15       0.05       0.15       0.25       0.35       0.45       0.55       0.65       0.75       0.85       0.95       1.05       1.15       mm        mm       °C        °C        °C       ppm
     2     7  2009     1     1     382.4     4.7      0.0    0.0    3.9    0.8      0.0      0.0   -9.90      4.4      4.4    100      0.0      0.0   100      4.4     4.4     100     18.0    0.30     -9     -9     -9      0     -9     0.0     0.0      0    -9.00      0.0      0.0      0.0   100     0.0     0.000    -9.9    0.000      -9        0.00     382.4    254.8    0.30    95.3     133.2      95.7      90.7      70.2      71.1      60.0    0.000     0.000     0.000     0.000     0.000    0.30     0.00    0.00      0   -9.90   -9.00       31.5       31.9       31.9       31.9       31.9       31.9       31.9       31.9       31.9       31.9       31.9       31.9        0.0        0.0        0.0        0.0        0.0        0.0        0.0        0.0        0.0        0.0        0.0        0.0      4.7       4.0      22.0      28.4      34.8    387.43
     3     7  2009     2     1     379.1     0.0      0.0    0.0    0.0    0.0      0.0      0.0   -9.90      4.3      3.3     77      0.0      0.0   100      4.3     3.3      77     19.1    0.30     -9     -9     -9      0     -9     0.0     0.0      0    -9.00      0.0      0.0      0.0   100     0.0     0.000    -9.9    0.000      -9        0.00     379.1    251.5    0.30    92.0     133.2      95.7      90.7      70.2      71.1      60.0    0.000     0.000     0.000     0.000     0.000    0.30     0.00    0.00      0   -9.90   -9.00       28.2       31.9       31.9       31.9       31.9       31.9       31.9       31.9       31.9       31.9       31.9       31.9        0.0        0.0        0.0        0.0        0.0        0.0        0.0        0.0        0.0        0.0        0.0        0.0      0.0       3.9      24.1      29.7      35.3    387.43
     4     7  2009     3     1     376.7     0.0      0.0    0.0    0.0    0.0      0.0      0.0   -9.90      4.3      2.3     54      0.0      0.0   100      4.3     2.3      54     20.2    0.30     -9     -9     -9      0     -9     0.0     0.0      0    -9.00      0.0      0.0      0.0   100     0.0     0.000    -9.9    0.000      -9        0.00     376.7    249.1    0.30    89.6     133.2      95.7      90.7      70.2      71.1      60.0    0.000     0.000     0.000     0.000     0.000    0.30     0.00    0.00      0   -9.90   -9.00       25.8       31.9       31.9       31.9       31.9       31.9       31.9       31.9       31.9       31.9       31.9       31.9        0.0        0.0        0.0        0.0        0.0        0.0        0.0        0.0        0.0        0.0        0.0        0.0      0.0       3.9      26.4      31.9      37.5    387.43
     5     7  2009     4     1     381.1     7.0      0.0    0.0    6.5    0.5      0.0      0.0   -9.90      2.2      2.2    100      0.0      0.0   100      2.2     2.2     100     19.1    0.30     -9     -9     -9      0     -9     0.0     0.0      0    -9.00      0.0      0.0      0.0   100     0.0     0.000    -9.9    0.000      -9        0.00     381.1    253.5    0.30    94.0     133.2      95.7      90.7      68.6      71.1      60.0    0.000     0.000     0.000     0.000     0.000    0.30     0.00    0.00      0   -9.90   -9.00       30.2       31.9       31.9       31.9       31.9       31.9       31.9       31.9       31.9       31.9       31.9       31.9        0.0        0.0        0.0        0.0        0.0        0.0        0.0        0.0        0.0        0.0        0.0        0.0      7.0       2.0      25.5      27.1      28.7    387.43
     6     7  2009     5     1     377.0     0.0      0.0    0.0    0.0    0.0      0.0      0.0   -9.90      4.1      4.1    100      0.0      0.0   100      4.1     4.1     100     20.0    0.30     -9     -9     -9      0     -9     0.0     0.0      0    -9.00      0.0      0.0      0.0   100     0.0     0.000    -9.9    0.000      -9        0.00     377.0    249.4    0.30    89.9     133.2      95.7      90.7      70.0      71.1      60.0    0.000     0.000     0.000     0.000     0.000    0.30     0.00    0.00      0   -9.90   -9.00       26.1       31.9       31.9       31.9       31.9       31.9       31.9       31.9       31.9       31.9       31.9       31.9        0.0        0.0        0.0        0.0        0.0        0.0        0.0        0.0        0.0        0.0        0.0        0.0      0.0       3.7      26.0      31.2      36.4    387.43
     7     7  2009     6     1     373.8     0.0      0.0    0.0    0.0    0.0      0.0      0.0   -9.90      4.0      3.2     81      0.0      0.0   100      4.0     3.2      81     19.6    0.30     -9     -9     -9      0     -9     0.0     0.0      0    -9.00      0.0      0.0      0.0   100     0.0     0.000    -9.9    0.000      -9        0.00     373.8    246.2    0.30    86.7     133.2      95.7      90.7      69.9      71.1      60.0    0.000     0.000     0.000     0.000     0.000    0.30     0.00    0.00      0   -9.90   -9.00       22.9       31.9       31.9       31.9       31.9       31.9       31.9       31.9       31.9       31.9       31.9       31.9        0.0        0.0        0.0        0.0        0.0        0.0        0.0        0.0        0.0        0.0        0.0        0.0      0.0       3.6      25.2      30.0      34.9    387.43
     8     7  2009     7     2     371.8     0.0      0.0    0.0    0.0    0.0      0.0      0.0   -9.90      3.6      2.0     55      0.0      0.0   100      3.6     2.0      55     20.1    0.30     -9      0      0      0     45     0.2     0.1      0     0.00      0.0      0.0      0.0   100    34.2     0.001    -9.9    0.000      74        0.00     371.8    244.2    0.30    84.7     133.2      95.7      88.4      69.7      69.7      60.0    0.000     0.000     0.000     0.000     0.000    0.30     0.00    0.00      0   -9.90   -9.00       20.9       31.9       31.9       31.9       31.9       31.9       31.9       31.9       31.9       31.9       31.9       31.9        0.0        0.0        0.0        0.0        0.0        0.0        0.0        0.0        0.0        0.0        0.0        0.0      0.0       3.3      26.2      30.2      34.2    387.43
     9     7  2009     8     2     370.1     0.0      0.0    0.0    0.0    0.0      0.0      0.0   -9.90      4.3      1.7     41      0.0      0.0   100      4.3     1.8      41     20.5    0.30     -9      0      0      0     45     0.2     0.1      0     0.00      0.0      0.0      0.0   100    34.2     0.002    -9.9    0.000      69        0.00     370.1    242.5    0.30    83.0     133.2      95.7      89.2      70.2      70.2      60.0    0.000     0.000     0.000     0.000     0.000    0.30     0.00    0.00      0   -9.90   -9.00       19.2       31.9       31.9       31.9       31.9       31.9       31.9       31.9       31.9       31.9       31.9       31.9        0.0        0.0        0.0        0.0        0.0        0.0        0.0        0.0        0.0        0.0        0.0        0.0      0.0       3.9      27.0      32.1      37.3    387.43
    10     7  2009     9     2     368.8     0.0      0.0    0.0    0.0    0.0      0.0      0.0   -9.90      3.8      1.2     32      0.0      0.0   100      3.8     1.3      33     21.0    0.30     -9      0      0      0     45     0.3     0.1      0     0.00      0.0      0.0      0.0   100    34.2     0.003    -9.9    0.000      66        0.00     368.8    241.2    0.30    81.7     133.2      95.7      88.7      69.8      69.8      60.0    0.000     0.000     0.000     0.000     0.000    0.30     0.00    0.00      0   -9.90   -9.00       18.0       31.9       31.9       31.9       31.9       31.9       31.9       31.9       31.9       31.9       31.9       31.9        0.0        0.0        0.0        0.0        0.0        0.0        0.0        0.0        0.0        0.0        0.0        0.0      0.0       3.5      28.0      32.3      36.5    387.43
    11     7  2009    10     2     367.8     2.4      0.0    0.0    2.4    0.0      0.0      0.0   -9.90      4.6      3.4     74      0.0      0.0   100      4.6     3.4      74     19.0    0.30      7      0      0      0     45     0.3     0.2      0     0.01      0.0      0.0      0.0   100    34.2     0.005    -9.9    0.000      64        0.00     367.8    240.2    0.30    80.7     133.2      95.7      89.6      70.4      70.4      60.0    0.000     0.000     0.000     0.000     0.000    0.30     0.00    0.00      0   -9.90   -9.00       17.0       31.8       31.9       31.9       31.9       31.9       31.9       31.9       31.9       31.9       31.9       31.9        0.0        0.0        0.0        0.0        0.0        0.0        0.0        0.0        0.0        0.0        0.0        0.0      2.4       4.2      24.0      30.3      36.6    387.43
    12     7  2009    11     2     367.1     2.4      0.0    0.0    2.4    0.0      0.0      0.0   -9.90      4.3      3.1     73      0.0      0.0   100      4.3     3.1      73     20.5    0.30      8      0      0      0     45     0.3     0.2      0     0.01      0.0      0.0      0.0   100    34.2     0.006    -9.9    0.000      61        0.00     367.1    239.5    0.30    80.0     133.2      95.7      89.2      70.2      70.2      60.0    0.000     0.000     0.000     0.000     0.000    0.30     0.00    0.00      0   -9.90   -9.00       16.2       31.8       31.9       31.9       31.9       31.9       31.9       31.9       31.9       31.9       31.9       31.9        0.0        0.0        0.0        0.0        0.0        0.0        0.0        0.0        0.0        0.0        0.0        0.0      2.4       3.9      27.0      32.3      37.6    387.43
    13     7  2009    12     2     370.5     7.2      0.0    0.0    7.1    0.1      0.0      0.0   -9.90      3.6      3.6    100      0.0      0.0   100      3.6     3.6     100     19.5    0.30      1      0      0      0     45     0.4     0.2      0     0.01      0.0      0.0      0.0   100    34.2     0.008    -9.9    0.000      59        0.00     370.5    242.9    0.30    83.4     133.2      95.7      88.4      69.7      69.7      60.0    0.000     0.000     0.000     0.000     0.000    0.30     0.00    0.00      0   -9.90   -9.00       19.7       31.8       31.9       31.9       31.9       31.9       31.9       31.9       31.9       31.9       31.9       31.9        0.0        0.0        0.0        0.0        0.0        0.0        0.0        0.0        0.0        0.0        0.0        0.0      7.2       3.3      25.0      29.4      33.8    387.43
    14     7  2009    13     2     369.4     2.4      0.0    0.0    2.4    0.0      0.0      0.0   -9.90      4.2      3.5     84      0.0      0.0   100      4.2     3.5      84     19.8    0.31      3      0      0      0     45     0.4     0.2      0     0.01      0.0      0.0      0.0   100    34.2     0.010    -9.9    0.000      56        0.00     369.4    241.8    0.31    84.5     136.2      97.8      91.1      71.6      71.6      61.3    0.000     0.000     0.000     0.000     0.000    0.31     0.00    0.00      0   -9.90   -9.00       18.6       31.8       31.9       31.9       31.9       31.9       31.9       31.9       31.9       31.9       31.9       31.9        0.0        0.0        0.0        0.0        0.0        0.0        0.0        0.0        0.0        0.0        0.0        0.0      2.4       3.8      25.5      30.6      35.7    387.43
    15     7  2009    14     2     370.3     4.8      0.0    0.0    4.8    0.0      0.0      0.0   -9.90      3.9      3.9    100      0.0      0.0   100      4.0     4.0     100     18.3    0.31      1      0      0      0     45     0.4     0.2      0     0.01      0.0      0.0      0.0   100    34.2     0.012    -9.9    0.000      54        0.00     370.3    242.7    0.31    87.6     139.4     100.2      93.0      73.2      73.2      62.8    0.000     0.000     0.000     0.000     0.000    0.31     0.00    0.00      0   -9.90   -9.00       19.5       31.7       31.9       31.9       31.9       31.9       31.9       31.9       31.9       31.9       31.9       31.9        0.0        0.0        0.0        0.0        0.0        0.0        0.0        0.0        0.0        0.0        0.0        0.0      4.8       3.6      22.6      27.9      33.1    387.43
    16     7  2009    15     2     368.5     1.3      0.0    0.0    1.3    0.0      0.0      0.0   -9.90      4.5      3.0     68      0.0      0.0   100      4.5     3.1      68     18.6    0.32      5      0      0      0     45     0.5     0.3      0     0.01      0.0      0.0      0.0   100    34.2     0.014    -9.9    0.000      52        0.00     368.5    240.9    0.32    88.1     142.6     102.5      95.8      75.3      75.3      64.2    0.000     0.000     0.000     0.000     0.000    0.32     0.00    0.00      0   -9.90   -9.00       17.8       31.7       31.9       31.9       31.9       31.9       31.9       31.9       31.9       31.9       31.9       31.9        0.0        0.0        0.0        0.0        0.0        0.0        0.0        0.0        0.0        0.0        0.0        0.0      1.3       4.1      23.3      29.4      35.5    387.43
    17     7  2009    16     2     366.7     0.0      0.0    0.0    0.0    0.0      0.0      0.0   -9.90      4.3      1.7     40      0.0      0.0   100      4.3     1.7      41     19.5    0.33      9      0      0      0     45     0.5     0.3      0     0.01      0.0      0.0      0.0   100    34.2     0.016    -9.9    0.000      49        0.00     366.7    239.1    0.33    88.7     145.8     104.7      97.6      76.8      76.8      65.7    0.000     0.000     0.000     0.000     0.000    0.33     0.00    0.00      0   -9.90   -9.00       16.1       31.7       31.9       31.9       31.9       31.9       31.9       31.9       31.9       31.9       31.9       31.9        0.0        0.0        0.0        0.0        0.0        0.0        0.0        0.0        0.0        0.0        0.0        0.0      0.0       3.9      25.0      30.4      35.7    387.43
    18     7  2009    17     2     365.5     0.0      0.0    0.0    0.0    0.0      0.0      0.0   -9.90      4.0      1.2     30      0.0      0.0   100      4.1     1.3      31     19.3    0.34     12      0      0      0     45     0.6     0.3      0     0.01      0.0      0.0      0.0   100    34.2     0.019    -9.9    0.000      47        0.00     365.5    237.9    0.34    89.6     148.8     106.9      99.4      78.2      78.2      67.0    0.000     0.000     0.000     0.000     0.000    0.34     0.00    0.00      0   -9.90   -9.00       14.8       31.6       31.9       31.9       31.9       31.9       31.9       31.9       31.9       31.9       31.9       31.9        0.0        0.0        0.0        0.0        0.0        0.0        0.0        0.0        0.0        0.0        0.0        0.0      0.0       3.7      24.6      29.6      34.6    387.43
    19     7  2009    18     2     364.6     0.0      0.0    0.0    0.0    0.0      0.0      0.0   -9.90      3.4      0.8     25      0.0      0.0   100      3.4     0.9      26     20.6    0.34     12      0      0      0     45     0.6     0.4      0     0.01      0.0      0.0      0.0   100    34.2     0.022    -9.9    0.000      45        0.00     364.6    237.0    0.34    90.9     151.9     109.1     100.5      79.2      79.2      68.4    0.000     0.000     0.000     0.000     0.000    0.34     0.00    0.00      0   -9.90   -9.00       14.0       31.6       31.9       31.9       31.9       31.9       31.9       31.9       31.9       31.9       31.9       31.9        0.0        0.0        0.0        0.0        0.0        0.0        0.0        0.0        0.0        0.0        0.0        0.0      0.0       3.1      27.1      30.4      33.7    387.43
    20     7  2009    19     2     364.1     1.3      0.0    0.0    1.3    0.0      0.0      0.0   -9.90      3.4      1.8     52      0.0      0.0   100      3.4     1.8      53     20.6    0.35     11      0      0      0     45     0.7     0.4      0     0.01      0.0      0.0      0.0   100    34.2     0.025    -9.9    0.000      43        0.00     364.1    236.5    0.35    92.6     154.9     111.3     102.5      80.8      80.8      69.8    0.000     0.000     0.000     0.000     0.000    0.35     0.00    0.00      0   -9.90   -9.00       13.5       31.6       31.9       31.9       31.9       31.9       31.9       31.9       31.9       31.9       31.9       31.9        0.0        0.0        0.0        0.0        0.0        0.0        0.0        0.0        0.0        0.0        0.0        0.0      1.3       3.1      27.3      30.9      34.4    387.43
    21     7  2009    20     2     364.2     4.8      0.0    0.0    4.8    0.0      0.0      0.0   -9.90      4.7      4.7    100      0.1      0.1   100      4.7     4.7     100     16.9    0.36      8      0      0      0     45     0.8     0.4      0     0.01      0.1      0.1      0.0   100    34.2     0.028    -9.9    0.000      41        0.00     364.2    236.6    0.36    94.7     157.8     113.4     106.3      83.5      83.5      71.1    0.000     0.000     0.000     0.000     0.000    0.36     0.00    0.00      0   -9.90   -9.00       13.7       31.5       31.9       31.9       31.9       31.9       31.9       31.9       31.9       31.9       31.9       31.9        0.0        0.0        0.0        0.0        0.0        0.0        0.0        0.0        0.0        0.0        0.0        0.0      4.8       4.3      19.9      27.2      34.5    387.43
    22     7  2009    21     2     363.2     0.0      0.0    0.0    0.0    0.0      0.0      0.0   -9.90      4.0      0.9     22      0.1      0.1   100      4.1     0.9      23     19.5    0.36     15      0      0      0     45     0.9     0.5      0     0.02      0.1      0.1      0.0   100    34.2     0.032    -9.9    0.000      39        0.00     363.2    235.6    0.36    95.9     160.7     115.5     107.3      84.4      84.4      72.4    0.000     0.000     0.000     0.000     0.000    0.36     0.00    0.00      0   -9.90   -9.00       12.8       31.4       31.9       31.9       31.9       31.9       31.9       31.9       31.9       31.9       31.9       31.9        0.0        0.0        0.0        0.0        0.0        0.0        0.0        0.0        0.0        0.0        0.0        0.0      0.0       3.7      25.0      29.8      34.5    387.43
    23     7  2009    22     2     362.5     0.0      0.0    0.0    0.0    0.0      0.0      0.0   -9.90      4.1      0.7     17      0.1      0.1   100      4.2     0.8      18     20.1    0.37     17      0      0      0     45     0.9     0.5      0     0.02      0.1      0.1      0.0   100    34.2     0.036    -9.9    0.000      36        0.00     362.5    234.9    0.37    97.2     163.6     117.5     109.4      86.1      86.1      73.7    0.000     0.000     0.000     0.000     0.000    0.37     0.00    0.00      0   -9.90   -9.00       12.1       31.4       31.9       31.9       31.9       31.9       31.9       31.9       31.9       31.9       31.9       31.9        0.0        0.0        0.0        0.0        0.0        0.0        0.0        0.0        0.0        0.0        0.0        0.0      0.0       3.8      26.2      31.1      36.1    387.43
    24     7  2009    23     2     362.2     2.4      0.0    0.0    2.4    0.0      0.0      0.0   -9.90      3.9      2.6     68      0.1      0.1   100      4.0     2.7      68     20.8    0.37     11      0      0      0     45     1.0     0.6      0     0.02      0.1      0.1      0.0   100    34.2     0.041    -9.9    0.000      35        0.00     362.2    234.6    0.37    98.9     166.4     119.6     111.0      87.3      87.3      75.0    0.000     0.000     0.000     0.000     0.000    0.37     0.00    0.00      0   -9.90   -9.00       11.9       31.3       31.9       31.9       31.9       31.9       31.9       31.9       31.9       31.9       31.9       31.9        0.0        0.0        0.0        0.0        0.0        0.0        0.0        0.0        0.0        0.0        0.0        0.0      2.4       3.6      27.5      31.8      36.0    387.43
    25     7  2009    24     2     361.9     2.4      0.0    0.0    2.4    0.0      0.0      0.0   -9.90      3.6      2.6     72      0.1      0.1   100      3.6     2.6      73     20.7    0.38     11      0      0      0     45     1.1     0.6      0     0.02      0.1      0.1      0.0   100    34.2     0.046    -9.9    0.000      33        0.00     361.9    234.3    0.38   100.7     169.2     121.6     112.3      88.5      88.5      76.2    0.000     0.000     0.000     0.000     0.000    0.38     0.00    0.00      0   -9.90   -9.00       11.7       31.2       31.9       31.9       31.9       31.9       31.9       31.9       31.9       31.9       31.9       31.9        0.0        0.0        0.0        0.0        0.0        0.0        0.0        0.0        0.0        0.0        0.0        0.0      2.4       3.3      27.4      31.0      34.6    387.43
    26     7  2009    25     2     361.3     0.0      0.0    0.0    0.0    0.0      0.0      0.0   -9.90      3.8      0.5     14      0.1      0.1   100      3.8     0.6      15     20.5    0.39     16      0      0      0     45     1.2     0.7      0     0.02      0.1      0.1      0.1   100    34.2     0.052    -9.9    0.000      31        0.00     361.3    233.7    0.39   102.1     172.0     123.6     114.5      90.1      90.1      77.5    0.000     0.000     0.000     0.000     0.000    0.39     0.00    0.00      0   -9.90   -9.00       11.2       31.2       31.9       31.9       31.9       31.9       31.9       31.9       31.9       31.9       31.9       31.9        0.0        0.0        0.0        0.0        0.0        0.0        0.0        0.0        0.0        0.0        0.0        0.0      0.0       3.5      27.0      31.1      35.1    387.43
    27     7  2009    26     2     366.6     9.7      0.0    0.0    9.3    0.4      0.0      0.0   -9.90      4.0      4.0    100      0.1      0.1   100      4.1     4.1     100     19.3    0.39      3      0      0      0     45     1.4     0.7      0     0.02      0.1      0.1      0.1   100    34.2     0.058    -9.9    0.000      29        0.00     366.6    239.0    0.39   109.3     174.7     125.5     116.7      91.8      91.8      78.7    0.000     0.000     0.000     0.000     0.000    0.39     0.00    0.00      0   -9.90   -9.00       16.5       31.1       31.9       31.9       31.9       31.9       31.9       31.9       31.9       31.9       31.9       31.9        0.0        0.0        0.0        0.0        0.0        0.0        0.0        0.0        0.0        0.0        0.0        0.0      9.7       3.7      24.5      29.4      34.2    387.43
    28     7  2009    27     2     362.9     0.0      0.0    0.0    0.0    0.0      0.0      0.0   -9.90      3.6      3.6    100      0.1      0.1   100      3.7     3.7     100     20.0    0.40      6      0      0      0     45     1.5     0.8      0     0.03      0.1      0.1      0.1   100    34.2     0.064    -9.9    0.000      28        0.00     362.9    235.3    0.40   107.5     177.4     127.5     117.9      92.9      92.9      79.9    0.000     0.000     0.000     0.000     0.000    0.40     0.00    0.00      0   -9.90   -9.00       12.9       31.0       31.9       31.9       31.9       31.9       31.9       31.9       31.9       31.9       31.9       31.9        0.0        0.0        0.0        0.0        0.0        0.0        0.0        0.0        0.0        0.0        0.0        0.0      0.0       3.4      26.0      30.1      34.2    387.43
    29     7  2009    28     2     362.6     3.3      0.0    0.0    3.3    0.0      0.0      0.0   -9.90      4.1      3.4     84      0.1      0.1   100      4.2     3.5      85     18.2    0.41      7      0      0      0     45     1.6     0.9      0     0.03      0.1      0.1      0.1   100    34.2     0.072    -9.9    0.000      26        0.00     362.6    235.0    0.41   109.2     180.1     129.4     120.5      94.7      94.7      81.1    0.000     0.000     0.000     0.000     0.000    0.41     0.00    0.00      0   -9.90   -9.00       12.7       30.9       31.9       31.9       31.9       31.9       31.9       31.9       31.9       31.9       31.9       31.9        0.0        0.0        0.0        0.0        0.0        0.0        0.0        0.0        0.0        0.0        0.0        0.0      3.3       3.8      22.4      27.8      33.1    387.43
    30     7  2009    29     2     364.4     6.5      0.0    0.0    6.4    0.1      0.0      0.0   -9.90      4.5      4.5    100      0.1      0.1   100      4.6     4.6     100     18.3    0.41      4      0      0      0     45     1.8     1.0      0     0.03      0.1      0.1      0.1   100    34.2     0.080    -9.9    0.000      25        0.00     364.4    236.8    0.41   112.9     182.8     131.3     123.0      96.6      96.6      82.3    0.000     0.000     0.000     0.000     0.000    0.41     0.00    0.00      0   -9.90   -9.00       14.7       30.7       31.9       31.9       31.9       31.9       31.9       31.9       31.9       31.9       31.9       31.9        0.0        0.0        0.0        0.0        0.0        0.0        0.0        0.0        0.0        0.0        0.0        0.0      6.5       4.2      22.5      28.5      34.5    387.43
    31     7  2009    30     2     364.2     3.3      0.0    0.0    3.3    0.0      0.0      0.0   -9.90      3.9      3.5     88      0.1      0.1   100      4.1     3.6      88     19.5    0.42      5      0      0      0     45     2.0     1.1      0     0.04      0.1      0.1      0.1   100    34.2     0.089    -9.9    0.000      23        0.00     364.2    236.6    0.42   114.6     185.4     133.2     123.8      97.4      97.4      83.5    0.000     0.000     0.000     0.000     0.000    0.42     0.00    0.00      0   -9.90   -9.00       14.5       30.6       31.9       31.9       31.9       31.9       31.9       31.9       31.9       31.9       31.9       31.9        0.0        0.0        0.0        0.0        0.0        0.0        0.0        0.0        0.0        0.0        0.0        0.0      3.3       3.7      25.0      29.6      34.2    387.43
     1     8  2009    31     2     363.2     0.0      0.0    0.0    0.0    0.0      0.0      0.0   -9.90      3.8      0.8     22      0.1      0.1   100      4.0     1.0      24     20.1    0.42      9      0      0      0     45     2.2     1.2      0     0.04      0.1      0.1      0.1   100    34.2     0.099    -9.9    0.000      22        0.00     363.2    235.6    0.42   115.5     188.0     135.1     125.4      98.7      98.7      84.7    0.000     0.000     0.000     0.000     0.000    0.42     0.00    0.00      0   -9.90   -9.00       13.7       30.5       31.9       31.9       31.9       31.9       31.9       31.9       31.9       31.9       31.9       31.9        0.0        0.0        0.0        0.0        0.0        0.0        0.0        0.0        0.0        0.0        0.0        0.0      0.0       3.6      26.3      30.5      34.8    387.43
     2     8  2009    32     2     364.4     5.6      0.0    0.0    5.6    0.0      0.0      0.0   -9.90      4.2      4.2    100      0.2      0.2   100      4.4     4.4     100     18.6    0.43      4      0      0      0     45     2.5     1.4      0     0.04      0.2      0.2      0.1   100    34.2     0.110    -9.9    0.000      21        0.00     364.4    236.8    0.43   118.5     190.6     136.9     127.9     100.5     100.5      85.9    0.000     0.000     0.000     0.000     0.000    0.43     0.00    0.00      0   -9.90   -9.00       15.1       30.3       31.9       31.9       31.9       31.9       31.9       31.9       31.9       31.9       31.9       31.9        0.0        0.0        0.0        0.0        0.0        0.0        0.0        0.0        0.0        0.0        0.0        0.0      5.6       4.0      23.3      28.7      34.1    387.43
     3     8  2009    33     2     367.9     8.4      0.0    0.0    8.2    0.2      0.0      0.0   -9.90      4.4      4.4    100      0.2      0.2   100      4.6     4.6     100     17.4    0.44      1      0      0      0     45     2.7     1.5      0     0.05      0.2      0.2      0.1   100    34.2     0.122    -9.9    0.000      20        0.00     367.9    240.3    0.44   123.9     193.2     138.8     130.0     102.1     102.1      87.0    0.000     0.000     0.000     0.000     0.000    0.44     0.00    0.00      0   -9.90   -9.00       18.8       30.1       31.9       31.9       31.9       31.9       31.9       31.9       31.9       31.9       31.9       31.9        0.0        0.0        0.0        0.0        0.0        0.0        0.0        0.0        0.0        0.0        0.0        0.0      8.4       4.2      20.8      27.2      33.6    387.43
     4     8  2009    34     2     363.9     0.0      0.0    0.0    0.0    0.0      0.0      0.0   -9.90      4.1      3.8     94      0.2      0.2   100      4.3     4.1      95     19.3    0.44      4      0      0      0     45     3.1     1.7      0     0.05      0.2      0.2      0.2   100    34.2     0.135    -9.9    0.000      19        0.00     363.9    236.3    0.44   121.7     195.7     140.6     131.1     103.1     103.1      88.2    0.000     0.000     0.000     0.000     0.000    0.44     0.00    0.00      0   -9.90   -9.00       15.0       29.9       31.9       31.9       31.9       31.9       31.9       31.9       31.9       31.9       31.9       31.9        0.0        0.0        0.0        0.0        0.0        0.0        0.0        0.0        0.0        0.0        0.0        0.0      0.0       3.9      24.5      29.4      34.3    387.43
     5     8  2009    35     2     365.0     5.6      0.0    0.0    5.6    0.0      0.0      0.0   -9.90      4.3      4.3    100      0.2      0.2   100      4.5     4.5     100     19.1    0.45      3      0      0      0     45     3.4     1.9      0     0.06      0.2      0.2      0.2   100    34.2     0.150    -9.9    0.000      18        0.00     365.0    237.4    0.45   124.6     198.3     142.4     133.2     104.7     104.7      89.3    0.000     0.000     0.000     0.000     0.000    0.45     0.00    0.00      0   -9.90   -9.00       16.3       29.6       31.9       31.9       31.9       31.9       31.9       31.9       31.9       31.9       31.9       31.9        0.0        0.0        0.0        0.0        0.0        0.0        0.0        0.0        0.0        0.0        0.0        0.0      5.6       4.1      24.3      29.7      35.1    387.43
     6     8  2009    36     2     367.5     6.3      0.0    0.0    6.2    0.1      0.0      0.0   -9.90      3.5      3.5    100      0.2      0.2   100      3.7     3.7     100     19.8    0.45      0      0      0      0     45     3.8     2.1      0     0.07      0.2      0.2      0.2   100    34.2     0.167    -9.9    0.000      17        0.00     367.5    239.9    0.45   128.9     200.8     144.3     133.5     105.1     105.1      90.4    0.000     0.000     0.000     0.000     0.000    0.45     0.00    0.00      0   -9.90   -9.00       19.1       29.4       31.9       31.9       31.9       31.9       31.9       31.9       31.9       31.9       31.9       31.9        0.0        0.0        0.0        0.0        0.0        0.0        0.0        0.0        0.0        0.0        0.0        0.0      6.3       3.4      25.5      29.2      32.9    387.43
     7     8  2009    37     2     367.7     4.3      0.0    0.0    4.3    0.0      0.0      0.0   -9.90      3.8      3.8    100      0.3      0.3   100      4.1     4.1     100     18.9    0.46      0      0      0      0     45     4.3     2.4      0     0.08      0.3      0.3      0.2   100    34.2     0.186    -9.9    0.000      17        0.00     367.7    240.1    0.46   131.0     203.3     146.0     135.8     106.8     106.8      91.6    0.000     0.000     0.000     0.000     0.000    0.46     0.00    0.00      0   -9.90   -9.00       19.6       29.1       31.9       31.9       31.9       31.9       31.9       31.9       31.9       31.9       31.9       31.9        0.0        0.0        0.0        0.0        0.0        0.0        0.0        0.0        0.0        0.0        0.0        0.0      4.3       3.7      23.9      28.4      33.0    387.43
     8     8  2009    38     2     368.0     4.3      0.0    0.0    4.3    0.0      0.0      0.0   -9.90      3.7      3.7    100      0.3      0.3   100      4.1     4.1     100     19.0    0.46      0      0      0      0     45     4.8     2.6      0     0.08      0.3      0.3      0.2   100    34.2     0.207    -9.9    0.000      16        0.00     368.0    240.4    0.46   133.0     205.8     147.8     137.4     108.1     108.1      92.7    0.000     0.000     0.000     0.000     0.000    0.46     0.00    0.00      0   -9.90   -9.00       19.8       29.1       31.9       31.9       31.9       31.9       31.9       31.9       31.9       31.9       31.9       31.9        0.0        0.0        0.0        0.0        0.0        0.0        0.0        0.0        0.0        0.0        0.0        0.0      4.3       3.7      24.0      28.5      33.0    387.43
     9     8  2009    39     2     366.9     2.1      0.0    0.0    2.1    0.0      0.0      0.0   -9.90      3.6      2.9     79      0.3      0.3   100      3.9     3.2      81     19.0    0.47      1      0      0      0     45     5.4     3.0      0     0.09      0.3      0.3      0.2   100    34.2     0.230    -9.9    0.000      16        0.00     366.9    239.3    0.47   133.7     208.2     149.6     138.8     109.3     109.3      93.8    0.000     0.000     0.000     0.000     0.000    0.47     0.00    0.00      0   -9.90   -9.00       19.1       28.8       31.9       31.9       31.9       31.9       31.9       31.9       31.9       31.9       31.9       31.9        0.0        0.0        0.0        0.0        0.0        0.0        0.0        0.0        0.0        0.0        0.0        0.0      2.1       3.6      24.0      28.3      32.5    387.43
    10     8  2009    40     2     365.1     0.0      0.0    0.0    0.0    0.0      0.0      0.0   -9.90      3.5      1.4     40      0.4      0.4   100      3.8     1.8      46     20.0    0.47      3      0      0      0     45     6.0     3.3      0     0.10      0.4      0.4      0.3   100    34.2     0.256    -9.9    0.000      16        0.00     365.1    237.5    0.47   133.7     210.7     151.4     140.3     110.4     110.4      94.9    0.000     0.000     0.000     0.000     0.000    0.47     0.00    0.00      0   -9.90   -9.00       17.7       28.4       31.9       31.9       31.9       31.9       31.9       31.9       31.9       31.9       31.9       31.9        0.0        0.0        0.0        0.0        0.0        0.0        0.0        0.0        0.0        0.0        0.0        0.0      0.0       3.5      26.0      29.9      33.8    387.43
    11     8  2009    41     2     366.6     5.9      0.0    0.0    5.9    0.0      0.0      0.0   -9.90      3.9      3.9    100      0.5      0.5   100      4.4     4.4     100     18.5    0.48      1      0      0      0     45     6.8     3.7      0     0.12      0.5      0.5      0.3   100    34.2     0.286    -9.9    0.000      16        0.00     366.6    239.0    0.48   136.9     213.1     153.1     143.0     112.4     112.4      96.0    0.000     0.000     0.000     0.000     0.000    0.48     0.00    0.00      0   -9.90   -9.00       19.6       28.0       31.9       31.9       31.9       31.9       31.9       31.9       31.9       31.9       31.9       31.9        0.0        0.0        0.0        0.0        0.0        0.0        0.0        0.0        0.0        0.0        0.0        0.0      5.9       4.0      23.0      28.3      33.5    387.43
    12     8  2009    42     2     371.1     8.9      0.0    0.0    8.7    0.2      0.0      0.0   -9.90      3.7      3.7    100      0.5      0.5   100      4.2     4.2     100     19.1    0.49      0      0      0      0     45     7.6     4.2      0     0.13      0.5      0.5      0.4   100    34.1     0.318    -9.9    0.000      16        0.00     371.1    243.5    0.49   143.1     215.5     154.8     144.1     113.4     113.4      97.1    0.000     0.000     0.000     0.000     0.000    0.49     0.00    0.00      0   -9.90   -9.00       24.1       28.0       31.9       31.9       31.9       31.9       31.9       31.9       31.9       31.9       31.9       31.9        0.0        0.0        0.0        0.0        0.0        0.0        0.0        0.0        0.0        0.0        0.0        0.0      8.9       3.8      24.2      28.9      33.6    387.43
    13     8  2009    43     2     372.3     5.9      0.0    0.0    5.8    0.1      0.0      0.0   -9.90      4.0      4.0    100      0.6      0.6   100      4.6     4.6     100     17.8    0.49      0      0      0      0     45     8.5     4.7      0     0.15      0.6      0.6      0.4   100    34.1     0.354    -9.9    0.000      17        0.00     372.3    244.7    0.49   146.0     217.9     156.6     146.6     115.2     115.2      98.2    0.000     0.000     0.000     0.000     0.000    0.49     0.00    0.00      0   -9.90   -9.00       25.3       28.0       31.9       31.9       31.9       31.9       31.9       31.9       31.9       31.9       31.9       31.9        0.0        0.0        0.0        0.0        0.0        0.0        0.0        0.0        0.0        0.0        0.0        0.0      5.9       4.2      21.5      27.1      32.8    387.43
    14     8  2009    44     2     368.8     0.0      0.0    0.0    0.0    0.0      0.0      0.0   -9.90      3.2      3.0     94      0.6      0.6   100      3.7     3.5      94     20.1    0.50      0      0      0      0     45     9.6     5.3      0     0.16      0.6      0.6      0.4   100    34.1     0.394    -9.9    0.000      17        0.00     368.8    241.2    0.50   144.3     220.3     158.3     146.5     115.4     115.4      99.2    0.000     0.000     0.000     0.000     0.000    0.50     0.00    0.00      0   -9.90   -9.00       21.8       28.0       31.9       31.9       31.9       31.9       31.9       31.9       31.9       31.9       31.9       31.9        0.0        0.0        0.0        0.0        0.0        0.0        0.0        0.0        0.0        0.0        0.0        0.0      0.0       3.4      26.3      29.7      33.1    387.43
    15     8  2009    45     2     367.9     3.4      0.0    0.0    3.4    0.0      0.0      0.0   -9.90      3.6      3.6     98      0.7      0.7   100      4.4     4.3      98     17.8    0.50      0      0      0      0     45    10.7     5.9      0     0.18      0.7      0.7      0.5   100    34.1     0.439    -9.9    0.000      18        0.00     367.9    240.3    0.50   145.1     222.7     160.0     149.4     117.4     117.4     100.3    0.000     0.000     0.000     0.000     0.000    0.50     0.00    0.00      0   -9.90   -9.00       20.9       28.0       31.9       31.9       31.9       31.9       31.9       31.9       31.9       31.9       31.9       31.9        0.0        0.0        0.0        0.0        0.0        0.0        0.0        0.0        0.0        0.0        0.0        0.0      3.4       4.0      21.6      26.8      32.0    387.43
    16     8  2009    46     2     365.1     0.0      0.0    0.0    0.0    0.0      0.0      0.0   -9.90      3.9      2.0     50      0.9      0.9   100      4.8     2.8      59     16.9    0.51      3      0      0      0     45    11.6     6.4      0     0.19      0.9      0.9      0.6   100    34.1     0.487    -9.9    0.000      18        0.00     365.1    237.5    0.51   144.0     225.1     161.7     151.9     119.2     119.2     101.4    0.000     0.000     0.000     0.000     0.000    0.51     0.00    0.00      0   -9.90   -9.00       19.0       27.1       31.9       31.9       31.9       31.9       31.9       31.9       31.9       31.9       31.9       31.9        0.0        0.0        0.0        0.0        0.0        0.0        0.0        0.0        0.0        0.0        0.0        0.0      0.0       4.4      19.8      26.3      32.8    387.43
    17     8  2009    47     2     364.5     3.8      0.0    0.0    3.8    0.0      0.0      0.0   -9.90      3.5      3.5    100      0.8      0.8   100      4.4     4.4     100     19.0    0.51      2      0      0      0     45    12.4     6.8      0     0.21      0.8      0.8      0.6   100    34.1     0.537    -9.9    0.000      19        0.00     364.5    236.9    0.51   145.1     227.4     163.4     152.6     119.9     119.9     102.4    0.000     0.000     0.000     0.000     0.000    0.51     0.00    0.00      0   -9.90   -9.00       19.2       26.3       31.9       31.9       31.9       31.9       31.9       31.9       31.9       31.9       31.9       31.9        0.0        0.0        0.0        0.0        0.0        0.0        0.0        0.0        0.0        0.0        0.0        0.0      3.8       4.0      24.0      28.8      33.6    387.43
    18     8  2009    48     2     363.7     3.8      0.0    0.0    3.8    0.0      0.0      0.0   -9.90      3.7      3.7    100      0.9      0.9   100      4.6     4.6     100     18.9    0.52      2      0      0      0     45    13.1     7.2      0     0.22      0.9      0.9      0.7   100    34.0     0.591    -9.9    0.000      20        0.00     363.7    236.1    0.52   146.0     229.8     165.1     154.6     121.4     121.4     103.5    0.000     0.000     0.000     0.000     0.000    0.52     0.00    0.00      0   -9.90   -9.00       19.4       25.4       31.9       31.9       31.9       31.9       31.9       31.9       31.9       31.9       31.9       31.9        0.0        0.0        0.0        0.0        0.0        0.0        0.0        0.0        0.0        0.0        0.0        0.0      3.8       4.2      23.9      29.1      34.3    387.43
    19     8  2009    49     2     363.3     3.8      0.0    0.0    3.8    0.0      0.0      0.0   -9.90      3.4      3.4    100      0.9      0.9   100      4.2     4.2     100     17.9    0.52      2      0      0      0     45    13.7     7.5      0     0.23      0.9      0.9      0.6   100    34.0     0.646    -9.9    0.000      20        0.00     363.3    235.7    0.52   147.2     232.1     166.7     155.5     122.2     122.2     104.5    0.000     0.000     0.000     0.000     0.000    0.52     0.00    0.00      0   -9.90   -9.00       19.8       24.5       31.9       31.9       31.9       31.9       31.9       31.9       31.9       31.9       31.9       31.9        0.0        0.0        0.0        0.0        0.0        0.0        0.0        0.0        0.0        0.0        0.0        0.0      3.8       3.9      21.8      26.7      31.6    387.43
    20     8  2009    50     2     361.1     0.0      0.0    0.0    0.0    0.0      0.0      0.0   -9.90      3.2      1.3     40      0.9      0.9   100      4.1     2.2      53     20.3    0.53      5      0      0      0     45    14.2     7.8      0     0.23      0.9      0.9      0.6   100    34.0     0.703    -9.9    0.000      21        0.00     361.1    233.5    0.53   146.7     234.4     168.4     156.8     123.3     123.3     105.6    0.000     0.000     0.000     0.000     0.000    0.53     0.00    0.00      0   -9.90   -9.00       18.5       23.6       31.9       31.9       31.9       31.9       31.9       31.9       31.9       31.9       31.9       31.9        0.0        0.0        0.0        0.0        0.0        0.0        0.0        0.0        0.0        0.0        0.0        0.0      0.0       3.8      26.6      30.6      34.6    387.43
    21     8  2009    51     2     359.4     0.0      0.0    0.0    0.0    0.0      0.0      0.0   -9.90      3.4      0.8     24      1.0      1.0   100      4.3     1.8      41     19.8    0.53      8      0      0      0     45    14.6     8.0      0     0.24      1.0      1.0      0.7   100    33.9     0.762    -9.9    0.000      21        0.00     359.4    231.8    0.53   146.6     236.7     170.1     158.8     124.8     124.8     106.6    0.000     0.000     0.000     0.000     0.000    0.53     0.00    0.00      0   -9.90   -9.00       17.7       22.6       31.9       31.9       31.9       31.9       31.9       31.9       31.9       31.9       31.9       31.9        0.0        0.0        0.0        0.0        0.0        0.0        0.0        0.0        0.0        0.0        0.0        0.0      0.0       4.0      25.5      30.0      34.5    387.43
    22     8  2009    52     2     363.1     8.4      0.0    0.0    8.3    0.1      0.0      0.0   -9.90      3.5      3.5    100      1.0      1.0   100      4.6     4.6     100     18.0    0.54      2      0      0      0     45    15.0     8.2      0     0.25      1.0      1.0      0.7   100    33.9     0.821    -9.9    0.000      22        0.00     363.1    235.5    0.54   152.0     239.0     171.7     160.8     126.3     126.3     107.7    0.000     0.000     0.000     0.000     0.000    0.54     0.00    0.00      0   -9.90   -9.00       21.4       22.6       31.9       31.9       31.9       31.9       31.9       31.9       31.9       31.9       31.9       31.9        0.0        0.0        0.0        0.0        0.0        0.0        0.0        0.0        0.0        0.0        0.0        0.0      8.4       4.2      22.0      27.1      32.2    387.43
    23     8  2009    53     2     363.0     4.3      0.0    0.0    4.3    0.0      0.0      0.0   -9.90      3.3      3.3    100      1.0      1.0   100      4.3     4.3     100     18.2    0.54      2      0      0      0     45    15.3     8.4      0     0.25      1.0      1.0      0.7   100    33.8     0.882    -9.9    0.000      22        0.00     363.0    235.4    0.54   153.6     241.3     173.4     161.9     127.2     127.2     108.7    0.000     0.000     0.000     0.000     0.000    0.54     0.00    0.00      0   -9.90   -9.00       21.4       22.6       31.9       31.9       31.9       31.9       31.9       31.9       31.9       31.9       31.9       31.9        0.0        0.0        0.0        0.0        0.0        0.0        0.0        0.0        0.0        0.0        0.0        0.0      4.3       4.0      22.4      27.2      32.0    387.43
    24     8  2009    54     2     367.3     8.4      0.0    0.0    8.2    0.2      0.0      0.0   -9.90      3.0      3.0    100      0.9      0.9   100      3.9     3.9     100     19.4    0.55      0      0      0      0     45    15.6     8.6      0     0.26      0.9      0.9      0.7   100    33.7     0.944    -9.9    0.000      23        0.00     367.3    239.7    0.55   159.5     243.6     175.0     162.4     127.8     127.8     109.7    0.000     0.000     0.000     0.000     0.000    0.55     0.00    0.00      0   -9.90   -9.00       25.7       22.6       31.9       31.9       31.9       31.9       31.9       31.9       31.9       31.9       31.9       31.9        0.0        0.0        0.0        0.0        0.0        0.0        0.0        0.0        0.0        0.0        0.0        0.0      8.4       3.6      24.7      28.6      32.5    387.43
    25     8  2009    55     2     377.5    16.9      0.0    0.0   14.3    2.6      0.0      0.0   -9.90      3.1      3.1    100      1.0      1.0   100      4.0     4.0     100     18.8    0.55      0      0      0      0     45    15.9     8.7      0     0.26      1.0      1.0      0.7   100    33.7     1.006    -9.9    0.000      23        0.00     377.5    249.9    0.55   171.4     245.8     176.6     164.2     129.2     129.2     110.7    0.000     0.000     0.000     0.000     0.000    0.55     0.00    0.00      0   -9.90   -9.00       35.9       22.6       31.9       31.9       31.9       31.9       31.9       31.9       31.9       31.9       31.9       31.9        0.0        0.0        0.0        0.0        0.0        0.0        0.0        0.0        0.0        0.0        0.0        0.0     16.9       3.7      23.5      27.6      31.8    387.43
    26     8  2009    56     2     373.7     0.0      0.0    0.0    0.0    0.0      0.0      0.0   -9.90      2.9      2.9    100      0.9      0.9   100      3.8     3.8     100     19.4    0.56      0      0      0      0     45    16.1     8.8      0     0.26      0.9      0.9      0.7   100    33.6     1.069    -9.9    0.000      23        0.00     373.7    246.1    0.56   169.2     248.1     178.2     165.2     130.0     130.0     111.7    0.000     0.000     0.000     0.000     0.000    0.56     0.00    0.00      0   -9.90   -9.00       30.4       24.4       31.9       31.9       31.9       31.9       31.9       31.9       31.9       31.9       31.9       31.9        0.0        0.0        0.0        0.0        0.0        0.0        0.0        0.0        0.0        0.0        0.0        0.0      0.0       3.5      24.8      28.4      32.0    387.43
    27     8  2009    57     2     374.5     5.5      0.0    0.0    5.1    0.4      0.0      0.0   -9.90      3.3      3.3    100      1.1      1.1   100      4.3     4.3     100     20.4    0.56      0      0      0      0     45    16.2     8.9      0     0.27      1.1      1.1      0.8   100    33.5     1.133    -9.9    0.000      24        0.00     374.5    246.9    0.56   171.5     250.3     179.8     167.9     132.0     132.0     112.8    0.000     0.000     0.000     0.000     0.000    0.56     0.00    0.00      0   -9.90   -9.00       31.1       24.4       31.9       31.9       31.9       31.9       31.9       31.9       31.9       31.9       31.9       31.9        0.0        0.0        0.0        0.0        0.0        0.0        0.0        0.0        0.0        0.0        0.0        0.0      5.5       4.0      26.9      31.1      35.4    387.43
    28     8  2009    58     2     380.2    13.8      0.0    0.0   10.0    3.8      0.0      0.0   -9.90      3.2      3.2    100      1.0      1.0   100      4.2     4.2     100     18.6    0.57      0      0      0      0     45    16.4     9.0      0     0.27      1.0      1.0      0.7   100    33.4     1.197    -9.9    0.000      24        0.00     380.2    252.6    0.57   178.9     252.5     181.4     169.2     133.0     133.0     113.8    0.000     0.000     0.000     0.000     0.000    0.57     0.00    0.00      0   -9.90   -9.00       36.9       24.4       31.9       31.9       31.9       31.9       31.9       31.9       31.9       31.9       31.9       31.9        0.0        0.0        0.0        0.0        0.0        0.0        0.0        0.0        0.0        0.0        0.0        0.0     13.8       3.9      23.3      27.6      32.0    387.43
    29     8  2009    59     2     376.1     0.0      0.0    0.0    0.0    0.0      0.0      0.0   -9.90      3.1      3.1    100      1.0      1.0   100      4.1     4.1     100     19.8    0.57      0      0      0      0     45    16.5     9.1      0     0.27      1.0      1.0      0.7   100    33.3     1.261    -9.9    0.000      25        0.00     376.1    248.5    0.57   176.4     254.8     183.0     170.4     134.0     134.0     114.8    0.000     0.000     0.000     0.000     0.000    0.57     0.00    0.00      0   -9.90   -9.00       30.5       26.6       31.9       31.9       31.9       31.9       31.9       31.9       31.9       31.9       31.9       31.9        0.0        0.0        0.0        0.0        0.0        0.0        0.0        0.0        0.0        0.0        0.0        0.0      0.0       3.8      25.5      29.4      33.2    387.43
    30     8  2009    60     2     371.5     0.0      0.0    0.0    0.0    0.0      0.0      0.0   -9.90      3.5      3.5    100      1.2      1.2   100      4.7     4.7     100     19.8    0.58      0      0      0      0     45    16.6     9.1      0     0.27      1.2      1.2      0.8   100    33.2     1.324    -9.9    0.000      25        0.00     371.5    243.9    0.58   173.3     257.0     184.6     173.2     136.0     136.0     115.8    0.000     0.000     0.000     0.000     0.000    0.58     0.00    0.00      0   -9.90   -9.00       25.9       26.6       31.9       31.9       31.9       31.9       31.9       31.9       31.9       31.9       31.9       31.9        0.0        0.0        0.0        0.0        0.0        0.0        0.0        0.0        0.0        0.0        0.0        0.0      0.0       4.3      25.5      30.1      34.8    387.43
    31     8  2009    61     2     374.5     8.3      0.0    0.0    7.7    0.6      0.0      0.0   -9.90      3.5      3.5    100      1.2      1.2   100      4.7     4.7     100     17.9    0.58      0      0      0      0     45    16.7     9.2      0     0.27      1.2      1.2      0.8   100    33.1     1.388    -9.9    0.000      25        0.00     374.5    246.9    0.58   177.9     259.2     186.2     174.7     137.2     137.2     116.7    0.000     0.000     0.000     0.000     0.000    0.58     0.00    0.00      0   -9.90   -9.00       28.9       26.6       31.9       31.9       31.9       31.9       31.9       31.9       31.9       31.9       31.9       31.9        0.0        0.0        0.0        0.0        0.0        0.0        0.0        0.0        0.0        0.0        0.0        0.0      8.3       4.3      21.7      26.9      32.1    387.43
     1     9  2009    62     2     370.2     0.0      0.0    0.0    0.0    0.0      0.0      0.0   -9.90      3.3      3.3    100      1.1      1.1   100      4.3     4.3     100     19.5    0.59      0      0      0      0     45    16.7     9.2      0     0.27      1.1      1.1      0.8   100    33.0     1.452    -9.9    0.000      25        0.00     370.2    242.6    0.59   175.2     261.4     187.8     175.3     137.8     137.8     117.7    0.000     0.000     0.000     0.000     0.000    0.59     0.00    0.00      0   -9.90   -9.00       24.6       26.6       31.9       31.9       31.9       31.9       31.9       31.9       31.9       31.9       31.9       31.9        0.0        0.0        0.0        0.0        0.0        0.0        0.0        0.0        0.0        0.0        0.0        0.0      0.0       4.0      25.0      29.3      33.5    387.43
     2     9  2009    63     2     366.0     0.0      0.0    0.0    0.0    0.0      0.0      0.0   -9.90      3.7      2.9     79      1.3      1.3   100      5.0     4.2      84     18.5    0.59      1      0      0      0     45    16.8     9.2      0     0.27      1.3      1.3      0.9   100    32.8     1.516    -9.9    0.000      26        0.00     366.0    238.4    0.59   172.5     263.6     189.4     178.4     140.0     140.0     118.7    0.000     0.000     0.000     0.000     0.000    0.59     0.00    0.00      0   -9.90   -9.00       20.4       26.6       31.9       31.9       31.9       31.9       31.9       31.9       31.9       31.9       31.9       31.9        0.0        0.0        0.0        0.0        0.0        0.0        0.0        0.0        0.0        0.0        0.0        0.0      0.0       4.6      23.0      28.5      34.0    387.43
     3     9  2009    64     2     368.8     7.2      0.0    0.0    7.1    0.1      0.0      0.0   -9.90      3.3      3.3    100      1.0      1.0   100      4.3     4.3     100     18.0    0.60      0      0      0      0     45    16.4     9.0      0     0.26      1.0      1.0      0.7   100    32.7     1.577    -9.9    0.000      26        0.00     368.8    241.2    0.60   176.9     265.7     190.9     178.3     140.1     140.1     119.7    0.000     0.000     0.000     0.000     0.000    0.60     0.00    0.00      0   -9.90   -9.00       23.2       26.6       31.9       31.9       31.9       31.9       31.9       31.9       31.9       31.9       31.9       31.9        0.0        0.0        0.0        0.0        0.0        0.0        0.0        0.0        0.0        0.0        0.0        0.0      7.2       4.0      22.0      26.5      31.0    387.43
     4     9  2009    65     2     364.3     0.0      0.0    0.0    0.0    0.0      0.0      0.0   -9.90      3.4      3.4    100      1.1      1.1   100      4.4     4.4     100     19.8    0.60      1      0      0      0     45    16.4     9.0      0     0.26      1.1      1.1      0.8   100    32.5     1.638    -9.9    0.000      26        0.00     364.3    236.7    0.60   174.0     267.9     192.5     180.0     141.4     141.4     120.7    0.000     0.000     0.000     0.000     0.000    0.60     0.00    0.00      0   -9.90   -9.00       19.8       25.5       31.9       31.9       31.9       31.9       31.9       31.9       31.9       31.9       31.9       31.9        0.0        0.0        0.0        0.0        0.0        0.0        0.0        0.0        0.0        0.0        0.0        0.0      0.0       4.1      25.5      29.8      34.0    387.43
     5     9  2009    66     2     363.7     3.6      0.0    0.0    3.6    0.0      0.0      0.0   -9.90      3.2      3.2    100      1.0      1.0   100      4.2     4.2     100     18.4    0.61      1      0      0      0     45    16.5     9.1      0     0.26      1.0      1.0      0.7   100    32.4     1.699    -9.9    0.000      26        0.00     363.7    236.1    0.61   175.0     270.1     194.0     180.9     142.3     142.3     121.7    0.000     0.000     0.000     0.000     0.000    0.61     0.00    0.00      0   -9.90   -9.00       19.2       25.5       31.9       31.9       31.9       31.9       31.9       31.9       31.9       31.9       31.9       31.9        0.0        0.0        0.0        0.0        0.0        0.0        0.0        0.0        0.0        0.0        0.0        0.0      3.6       3.9      22.7      26.9      31.1    387.43
     6     9  2009    67     3     373.3    14.3      0.0    0.0   13.3    1.0      0.0      0.0   -9.90      2.9      2.9    100      0.9      0.9   100      3.8     3.8     100     19.0    0.61      0      0      0      0     45    16.5     9.1      0     0.26      0.9      0.9      0.7   100    32.3     1.760    -9.9    0.000      26        0.00     373.3    245.7    0.61   186.1     272.2     195.6     181.3     142.7     142.7     122.6    0.000     0.000     0.000     0.000     0.000    0.61     0.00    0.00      0   -9.90   -9.00       28.8       25.5       31.9       31.9       31.9       31.9       31.9       31.9       31.9       31.9       31.9       31.9        0.0        0.0        0.0        0.0        0.0        0.0        0.0        0.0        0.0        0.0        0.0        0.0     14.3       3.5      24.0      27.4      30.7    387.43
     7     9  2009    68     3     371.6     2.9      0.0    0.0    2.9    0.0      0.0      0.0   -9.90      3.4      3.4     99      1.1      1.1   100      4.5     4.5      99     19.4    0.62      0      0      0      0     45    16.5     9.1      0     0.27      1.1      1.1      0.8   100    32.1     1.820    -9.9    0.000      26        0.00     371.6    244.0    0.62   186.0     274.4     197.1     184.6     145.0     145.0     123.6    0.000     0.000     0.000     0.000     0.000    0.62     0.00    0.00      0   -9.90   -9.00       27.1       25.5       31.9       31.9       31.9       31.9       31.9       31.9       31.9       31.9       31.9       31.9        0.0        0.0        0.0        0.0        0.0        0.0        0.0        0.0        0.0        0.0        0.0        0.0      2.9       4.2      24.8      29.3      33.8    387.43
     8     9  2009    69     3     368.9     0.0      0.0    0.0    0.0    0.0      0.0      0.0   -9.90      2.8      1.9     67      0.9      0.9   100      3.7     2.8      75     20.0    0.62      0      0      0      0     45    16.6     9.1      0     0.27      0.9      0.9      0.6   100    32.0     1.881    -9.9    0.000      27        0.00     368.9    241.3    0.62   184.7     276.5     198.7     183.8     144.8     144.8     124.6    0.000     0.000     0.000     0.000     0.000    0.62     0.00    0.00      0   -9.90   -9.00       24.4       25.5       31.9       31.9       31.9       31.9       31.9       31.9       31.9       31.9       31.9       31.9        0.0        0.0        0.0        0.0        0.0        0.0        0.0        0.0        0.0        0.0        0.0        0.0      0.0       3.4      26.0      29.0      32.0    387.43
     9     9  2009    70     3     373.6     8.6      0.0    0.0    8.1    0.5      0.0      0.0   -9.90      2.5      2.5    100      0.8      0.8   100      3.4     3.4     100     18.9    0.63      0      0      0      0     45    16.6     9.1      0     0.27      0.8      0.8      0.6   100    31.8     1.941     1.4    0.028      27        0.01     373.6    246.0    0.63   191.0     278.7     200.2     184.4     145.4     145.4     125.5    0.000     0.000     0.000     0.000     0.000    0.63     0.00    0.00      0   -9.90   -9.00       29.1       25.5       31.9       31.9       31.9       31.9       31.9       31.9       31.9       31.9       31.9       31.9        0.0        0.0        0.0        0.0        0.0        0.0        0.0        0.0        0.0        0.0        0.0        0.0      8.6       3.1      24.4      26.9      29.4    387.43
    10     9  2009    71     3     376.7     8.6      0.0    0.0    7.5    1.1      0.0      0.0   -9.90      3.3      3.3    100      1.1      1.1   100      4.4     4.4     100     19.3    0.63      0      0      0      0     45    16.6     9.1      0     0.27      1.1      1.1      0.8   100    31.7     2.001     1.6    0.032      27        0.01     376.7    249.1    0.63   195.6     280.8     201.7     188.6     148.2     148.2     126.5    0.000     0.000     0.000     0.000     0.000    0.63     0.00    0.00      0   -9.90   -9.00       32.2       25.5       31.9       31.9       31.9       31.9       31.9       31.9       31.9       31.9       31.9       31.9        0.0        0.0        0.0        0.0        0.0        0.0        0.0        0.0        0.0        0.0        0.0        0.0      8.6       4.1      24.5      28.6      32.8    387.43
    11     9  2009    72     3     377.9     6.7      0.0    0.0    5.6    1.1      0.0      0.0   -9.90      3.3      3.3    100      1.1      1.1   100      4.3     4.3     100     20.0    0.64     -9      0      0      0     45    16.5     9.1      0     0.26      1.1      1.1      0.7   100    31.3     2.060     1.8    0.037      27        0.02     377.9    250.3    0.64   198.4     282.9     203.3     189.8     149.2     149.2     127.4    0.000     0.000     0.000     0.000     0.000    0.64     0.00    0.00      0   -9.90   -9.00       33.3       25.6       31.9       31.9       31.9       31.9       31.9       31.9       31.9       31.9       31.9       31.9        0.0        0.0        0.0        0.0        0.0        0.0        0.0        0.0        0.0        0.0        0.0        0.0      6.7       4.0      26.0      29.8      33.5    387.43
    12     9  2009    73     3     374.0     0.0      0.0    0.0    0.0    0.0      0.0      0.0   -9.90      3.0      3.0     99      1.0      1.0   100      4.0     4.0      99     19.8    0.64     -9      0      0      0     45    16.5     9.1      0     0.26      1.0      1.0      0.7   100    31.1     2.119     2.0    0.043      27        0.02     374.0    246.4    0.64   195.9     285.0     204.8     190.3     149.8     149.8     128.4    0.000     0.000     0.000     0.000     0.000    0.64     0.00    0.00      0   -9.90   -9.00       28.7       26.2       31.9       31.9       31.9       31.9       31.9       31.9       31.9       31.9       31.9       31.9        0.0        0.0        0.0        0.0        0.0        0.0        0.0        0.0        0.0        0.0        0.0        0.0      0.0       3.7      25.6      29.0      32.4    387.43
    13     9  2009    74     3     370.6     0.0      0.0    0.0    0.0    0.0      0.0      0.0   -9.90      3.4      2.3     66      1.1      1.1   100      4.5     3.4      75     19.8    0.65     -9      0      0      0     45    16.5     9.1      0     0.26      1.1      1.1      0.8   100    31.0     2.177     2.3    0.049      27        0.02     370.6    243.0    0.65   194.1     287.1     206.3     193.2     151.8     151.8     129.3    0.000     0.000     0.000     0.000     0.000    0.65     0.00    0.00      0   -9.90   -9.00       25.4       26.2       31.9       31.9       31.9       31.9       31.9       31.9       31.9       31.9       31.9       31.9        0.0        0.0        0.0        0.0        0.0        0.0        0.0        0.0        0.0        0.0        0.0        0.0      0.0       4.2      25.5      29.6      33.7    387.43
    14     9  2009    75     3     373.1     6.7      0.0    0.0    6.4    0.3      0.0      0.0   -9.90      2.9      2.9    100      1.0      1.0   100      3.9     3.9     100     20.4    0.65     -9      0      0      0     45    16.6     9.1      0     0.26      1.0      1.0      0.7   100    30.8     2.235     2.5    0.057      27        0.02     373.1    245.5    0.65   198.1     289.2     207.8     192.9     151.8     151.8     130.3    0.000     0.000     0.000     0.000     0.000    0.65     0.00    0.00      0   -9.90   -9.00       27.9       26.2       31.9       31.9       31.9       31.9       31.9       31.9       31.9       31.9       31.9       31.9        0.0        0.0        0.0        0.0        0.0        0.0        0.0        0.0        0.0        0.0        0.0        0.0      6.7       3.6      26.7      29.8      32.8    387.43
    15     9  2009    76     3     368.2     0.0      0.0    0.0    0.0    0.0      0.0      0.0   -9.90      3.8      3.7    100      1.2      1.2   100      5.0     5.0     100     19.7    0.66     -9      0      0      0     45    16.6     9.1      0     0.26      1.2      1.2      0.9   100    30.6     2.292     2.8    0.065      27        0.02     368.2    240.6    0.66   194.7     291.3     209.3     197.2     154.7     154.7     131.2    0.000     0.000     0.000     0.000     0.000    0.66     0.00    0.00      0   -9.90   -9.00       23.0       26.2       31.9       31.9       31.9       31.9       31.9       31.9       31.9       31.9       31.9       31.9        0.0        0.0        0.0        0.0        0.0        0.0        0.0        0.0        0.0        0.0        0.0        0.0      0.0       4.6      25.4      30.2      35.0    387.43
    16     9  2009    77     3     372.0     9.1      0.0    0.0    8.7    0.4      0.0      0.0   -9.90      3.7      3.7    100      1.2      1.2   100      4.9     4.9     100     17.3    0.66     -9      0      0      0     45    16.6     9.1      0     0.26      1.2      1.2      0.8   100    30.4     2.350     3.2    0.074      27        0.03     372.0    244.4    0.66   200.0     293.4     210.8     198.3     155.6     155.6     132.2    0.000     0.000     0.000     0.000     0.000    0.66     0.00    0.00      0   -9.90   -9.00       26.7       26.2       31.9       31.9       31.9       31.9       31.9       31.9       31.9       31.9       31.9       31.9        0.0        0.0        0.0        0.0        0.0        0.0        0.0        0.0        0.0        0.0        0.0        0.0      9.1       4.5      20.6      25.9      31.2    387.43
    17     9  2009    78     3     368.2     0.0      0.0    0.0    0.0    0.0      0.0      0.0   -9.90      2.9      2.9    100      0.9      0.9   100      3.8     3.8     100     18.9    0.67     -9      0      0      0     45    16.6     9.1      0     0.26      0.9      0.9      0.7   100    30.2     2.407     3.5    0.085      27        0.03     368.2    240.6    0.67   197.7     295.5     212.3     196.7     154.9     154.9     133.1    0.000     0.000     0.000     0.000     0.000    0.67     0.00    0.00      0   -9.90   -9.00       23.0       26.2       31.9       31.9       31.9       31.9       31.9       31.9       31.9       31.9       31.9       31.9        0.0        0.0        0.0        0.0        0.0        0.0        0.0        0.0        0.0        0.0        0.0        0.0      0.0       3.5      23.8      27.0      30.1    387.43
    18     9  2009    79     3     369.8     6.0      0.0    0.0    5.9    0.1      0.0      0.0   -9.90      3.3      3.3    100      1.1      1.1   100      4.3     4.3     100     19.5    0.67     -9      0      0      0     45    16.6     9.1      0     0.26      1.1      1.1      0.8   100    30.0     2.463     3.9    0.097      27        0.04     369.8    242.2    0.67   200.7     297.5     213.8     199.6     156.9     156.9     134.0    0.000     0.000     0.000     0.000     0.000    0.67     0.00    0.00      0   -9.90   -9.00       24.6       26.2       31.9       31.9       31.9       31.9       31.9       31.9       31.9       31.9       31.9       31.9        0.0        0.0        0.0        0.0        0.0        0.0        0.0        0.0        0.0        0.0        0.0        0.0      6.0       4.0      25.0      28.9      32.8    387.43
    19     9  2009    80     4     366.0     0.0      0.0    0.0    0.0    0.0      0.0      0.0   -9.90      2.9      2.8     96      0.9      0.9   100      3.9     3.8      97     19.8    0.67     -9      0      0      0     45    16.5     9.1      0     0.26      0.9      0.9      0.7   100    29.8     2.519     4.4    0.110      27        0.04     366.0    238.4    0.67   198.5     299.6     215.3     199.8     157.2     157.2     135.0    0.000     0.000     0.000     0.000     0.000    0.67     0.00    0.00      0   -9.90   -9.00       20.8       26.2       31.9       31.9       31.9       31.9       31.9       31.9       31.9       31.9       31.9       31.9        0.0        0.0        0.0        0.0        0.0        0.0        0.0        0.0        0.0        0.0        0.0        0.0      0.0       3.6      25.5      28.4      31.3    387.43
    20     9  2009    81     4     363.4     0.0      0.0    0.0    0.0    0.0      0.0      0.0   -9.90      3.5      1.5     43      1.1      1.1   100      4.6     2.6      57     20.4    0.68     -9      0      0      0     45    16.5     9.1      0     0.26      1.1      1.1      0.8   100    29.5     2.574     4.9    0.125      27        0.04     363.4    235.8    0.68   197.3     301.7     216.7     203.3     159.6     159.6     135.9    0.000     0.000     0.000     0.000     0.000    0.68     0.00    0.00      0   -9.90   -9.00       19.3       25.1       31.9       31.9       31.9       31.9       31.9       31.9       31.9       31.9       31.9       31.9        0.0        0.0        0.0        0.0        0.0        0.0        0.0        0.0        0.0        0.0        0.0        0.0      0.0       4.3      26.7      30.6      34.6    387.43
    21     9  2009    82     4     361.3     0.0      0.0    0.0    0.0    0.0      0.0      0.0   -9.90      3.3      1.0     31      1.0      1.0   100      4.3     2.1      48     20.9    0.68     -9      0      0      0     45    16.5     9.1      0     0.26      1.0      1.0      0.7   100    29.3     2.629     5.4    0.142      27        0.05     361.3    233.7    0.68   196.7     303.7     218.2     203.7     160.2     160.2     136.8    0.000     0.000     0.000     0.000     0.000    0.68     0.00    0.00      0   -9.90   -9.00       18.3       24.0       31.9       31.9       31.9       31.9       31.9       31.9       31.9       31.9       31.9       31.9        0.0        0.0        0.0        0.0        0.0        0.0        0.0        0.0        0.0        0.0        0.0        0.0      0.0       4.0      27.8      31.1      34.5    387.43
    22     9  2009    83     4     361.0     3.3      0.0    0.0    3.3    0.0      0.0      0.0   -9.90      2.8      2.8    100      0.9      0.9   100      3.7     3.7     100     19.4    0.69     -9      0      0      0     45    16.5     9.1      0     0.26      0.9      0.9      0.6   100    29.1     2.683     6.0    0.160      28        0.06     361.0    233.4    0.69   197.8     305.8     219.7     203.3     160.1     160.1     137.7    0.000     0.000     0.000     0.000     0.000    0.69     0.00    0.00      0   -9.90   -9.00       18.8       23.2       31.9       31.9       31.9       31.9       31.9       31.9       31.9       31.9       31.9       31.9        0.0        0.0        0.0        0.0        0.0        0.0        0.0        0.0        0.0        0.0        0.0        0.0      3.3       3.4      24.9      27.6      30.3    387.43
    23     9  2009    84     4     358.7     0.0      0.0    0.0    0.0    0.0      0.0      0.0   -9.90      3.5      1.2     34      1.1      1.1   100      4.6     2.3      50     19.3    0.69     -9      0      0      0     45    16.4     9.0      0     0.26      1.1      1.1      0.8   100    28.8     2.736     6.6    0.181      28        0.06     358.7    231.1    0.69   197.0     307.8     221.1     207.4     162.9     162.9     138.6    0.000     0.000     0.000     0.000     0.000    0.69     0.00    0.00      0   -9.90   -9.00       17.6       22.0       31.9       31.9       31.9       31.9       31.9       31.9       31.9       31.9       31.9       31.9        0.0        0.0        0.0        0.0        0.0        0.0        0.0        0.0        0.0        0.0        0.0        0.0      0.0       4.3      24.6      28.8      33.0    387.43
    24     9  2009    85     4     356.9     0.0      0.0    0.0    0.0    0.0      0.0      0.0   -9.90      3.5      0.6     17      1.1      1.1   100      4.6     1.7      37     20.0    0.70     -9      0      0      0     45    16.4     9.0      0     0.26      1.1      1.1      0.8   100    28.6     2.789     7.2    0.202      28        0.07     356.9    229.3    0.70   196.7     309.8     222.6     208.8     164.0     164.0     139.6    0.000     0.000     0.000     0.000     0.000    0.70     0.00    0.00      0   -9.90   -9.00       17.0       20.9       31.9       31.9       31.9       31.9       31.9       31.9       31.9       31.9       31.9       31.9        0.0        0.0        0.0        0.0        0.0        0.0        0.0        0.0        0.0        0.0        0.0        0.0      0.0       4.3      26.0      29.9      33.8    387.43
    25     9  2009    86     4     362.6     9.8      0.0    0.0    9.6    0.2      0.0      0.0   -9.90      2.9      2.9    100      0.9      0.9   100      3.9     3.9     100     18.9    0.70     -9      0      0      0     45    16.3     9.0      0     0.26      0.9      0.9      0.7   100    28.4     2.841     7.8    0.223      28        0.08     362.6    235.0    0.70   203.9     311.9     224.1     208.0     163.7     163.7     140.5    0.000     0.000     0.000     0.000     0.000    0.70     0.00    0.00      0   -9.90   -9.00       22.7       20.9       31.9       31.9       31.9       31.9       31.9       31.9       31.9       31.9       31.9       31.9        0.0        0.0        0.0        0.0        0.0        0.0        0.0        0.0        0.0        0.0        0.0        0.0      9.8       3.6      23.8      26.9      30.0    387.43
    26     9  2009    87     4     357.8     0.0      0.0    0.0    0.0    0.0      0.0      0.0   -9.90      3.7      3.7    100      1.1      1.1   100      4.8     4.8     100     19.8    0.71     -9      0      0      0     45    16.3     8.9      0     0.25      1.1      1.1      0.8   100    28.1     2.892     8.5    0.245      28        0.08     357.8    230.2    0.71   200.5     313.9     225.5     212.2     166.5     166.5     141.4    0.000     0.000     0.000     0.000     0.000    0.71     0.00    0.00      0   -9.90   -9.00       19.0       19.8       31.9       31.9       31.9       31.9       31.9       31.9       31.9       31.9       31.9       31.9        0.0        0.0        0.0        0.0        0.0        0.0        0.0        0.0        0.0        0.0        0.0        0.0      0.0       4.5      25.5      29.8      34.1    387.43
    27     9  2009    88     4     353.4     0.0      0.0    0.0    0.0    0.0      0.0      0.0   -9.90      4.3      3.1     72      1.3      1.3   100      5.6     4.4      79     19.0    0.71     -9      0      0      0     45    16.2     8.9      0     0.25      1.3      1.3      0.9   100    27.9     2.942     9.1    0.268      27        0.09     353.4    225.8    0.71   197.6     315.9     227.0     215.7     168.9     168.9     142.3    0.000     0.000     0.000     0.000     0.000    0.71     0.00    0.00      0   -9.90   -9.00       15.9       19.8       30.6       31.9       31.9       31.9       31.9       31.9       31.9       31.9       31.9       31.9        0.0        0.0        0.0        0.0        0.0        0.0        0.0        0.0        0.0        0.0        0.0        0.0      0.0       5.2      24.0      29.8      35.5    387.43
    28     9  2009    89     4     351.7     0.0      0.0    0.0    0.0    0.0      0.0      0.0   -9.90      4.3      0.4     10      1.3      1.3   100      5.6     1.7      31     20.5    0.72     -9      0      0      0     45    16.1     8.9      0     0.25      1.3      1.3      0.9   100    27.6     2.991     9.7    0.291      27        0.09     351.7    224.1    0.72   197.3     317.9     228.4     217.1     170.0     170.0     143.2    0.000     0.000     0.000     0.000     0.000    0.72     0.00    0.00      0   -9.90   -9.00       15.5       19.8       29.3       31.9       31.9       31.9       31.9       31.9       31.9       31.9       31.9       31.9        0.0        0.0        0.0        0.0        0.0        0.0        0.0        0.0        0.0        0.0        0.0        0.0      0.0       5.2      27.0      32.2      37.4    387.43
    29     9  2009    90     4     350.1     0.0      0.0    0.0    0.0    0.0      0.0      0.0   -9.90      3.9      0.4      9      1.2      1.2   100      5.0     1.5      30     21.2    0.72     -9      0      0      0     45    16.1     8.8      0     0.25      1.2      1.2      0.8   100    27.4     3.040    10.3    0.314      27        0.10     350.1    222.5    0.72   197.2     319.9     229.9     216.9     170.1     170.1     144.1    0.000     0.000     0.000     0.000     0.000    0.72     0.00    0.00      0   -9.90   -9.00       15.1       19.8       28.1       31.9       31.9       31.9       31.9       31.9       31.9       31.9       31.9       31.9        0.0        0.0        0.0        0.0        0.0        0.0        0.0        0.0        0.0        0.0        0.0        0.0      0.0       4.7      28.4      32.5      36.6    387.43
[...]
    19    10  2019   110     4     311.5     0.0      0.0    0.0    0.0    0.0      0.0      0.0   -9.90      3.7      0.1      4      0.8      0.7    87      4.5     0.8      18     20.5    0.80     -9     13      3      0     45    14.1     7.8      0     0.18      0.8      0.7      0.5    87    24.6     3.729    22.8    0.850      25        0.33     311.5    183.9    0.80   183.9     355.2     255.2     239.7     188.2     196.2     160.0    0.000     0.000     0.000     0.000     0.000    0.80     0.00    0.00      0   -9.90   -9.00       10.4       18.9       19.3       19.3       20.3       31.9       31.9       31.9       31.9       31.9       31.9       31.9        0.0        0.0        0.0        0.0        0.0        0.0        0.0        0.0        0.0        0.0        0.0        0.0      0.0       4.4      27.0      30.6      34.2    410.21
    20    10  2019   111     4     310.6     0.0      0.0    0.0    0.0    0.0      0.0      0.0   -9.90      4.0      0.1      4      0.8      0.7    82      4.8     0.8      17     20.4    0.80     -9     18      4      0     45    14.0     7.7      0     0.18      0.8      0.7      0.5    82    24.4     3.755    23.4    0.880      25        0.34     310.6    183.0    0.80   183.0     355.2     255.2     240.8     188.8     196.8     160.0    0.000     0.000     0.000     0.000     0.000    0.80     0.00    0.00      0   -9.90   -9.00       10.2       18.9       19.3       19.3       19.7       31.9       31.9       31.9       31.9       31.9       31.9       31.9        0.0        0.0        0.0        0.0        0.0        0.0        0.0        0.0        0.0        0.0        0.0        0.0      0.0       4.7      26.7      30.8      34.9    410.21
    21    10  2019   112     4     309.7     0.0      0.0    0.0    0.0    0.0      0.0      0.0   -9.90      4.9      0.2      4      1.0      0.7    74      5.9     0.9      15     18.4    0.80     -9     26      7      0     45    13.8     7.6      0     0.17      1.0      0.7      0.5    74    24.2     3.777    24.0    0.908      25        0.34     309.7    182.1    0.80   182.1     355.2     255.2     244.4     191.0     198.7     160.0    0.000     0.000     0.000     0.000     0.000    0.80     0.00    0.00      0   -9.90   -9.00       10.1       18.9       19.3       19.3       19.7       31.2       31.9       31.9       31.9       31.9       31.9       31.9        0.0        0.0        0.0        0.0        0.0        0.0        0.0        0.0        0.0        0.0        0.0        0.0      0.0       5.7      22.7      29.1      35.6    410.21
    22    10  2019   113     4     308.9     0.0      0.0    0.0    0.0    0.0      0.0      0.0   -9.90      4.8      0.2      3      0.9      0.7    71      5.7     0.8      15     19.0    0.80     -9     29      8      0     45    13.6     7.5      0     0.17      0.9      0.7      0.5    71    24.1     3.798    24.7    0.937      25        0.35     308.9    181.3    0.80   181.3     355.2     255.2     244.0     190.8     198.5     160.0    0.000     0.000     0.000     0.000     0.000    0.80     0.00    0.00      0   -9.90   -9.00       10.0       18.8       19.3       19.3       19.7       30.5       31.9       31.9       31.9       31.9       31.9       31.9        0.0        0.0        0.0        0.0        0.0        0.0        0.0        0.0        0.0        0.0        0.0        0.0      0.0       5.6      24.0      30.1      36.2    410.21
    23    10  2019   114     4     308.1     0.0      0.0    0.0    0.0    0.0      0.0      0.0   -9.90      4.5      0.2      3      0.9      0.6    70      5.4     0.8      14     19.0    0.80     -9     30      9      0     45    13.4     7.3      0     0.16      0.9      0.6      0.4    70    23.9     3.818    25.3    0.965      24        0.36     308.1    180.5    0.80   180.5     355.2     255.2     242.9     190.2     198.0     160.0    0.000     0.000     0.000     0.000     0.000    0.80     0.00    0.00      0   -9.90   -9.00       10.0       18.6       19.3       19.3       19.7       29.9       31.9       31.9       31.9       31.9       31.9       31.9        0.0        0.0        0.0        0.0        0.0        0.0        0.0        0.0        0.0        0.0        0.0        0.0      0.0       5.3      24.0      29.5      35.0    410.21
    24    10  2019   115     4     307.4     0.0      0.0    0.0    0.0    0.0      0.0      0.0   -9.90      4.3      0.1      3      0.8      0.5    69      5.1     0.7      14     19.0    0.80     -9     31      9      0     45    13.1     7.2      0     0.16      0.8      0.5      0.4    69    23.8     3.836    25.9    0.994      24        0.37     307.4    179.8    0.80   179.8     355.2     255.2     241.9     189.5     197.4     160.0    0.000     0.000     0.000     0.000     0.000    0.80     0.00    0.00      0   -9.90   -9.00       10.0       18.5       19.3       19.3       19.7       29.3       31.9       31.9       31.9       31.9       31.9       31.9        0.0        0.0        0.0        0.0        0.0        0.0        0.0        0.0        0.0        0.0        0.0        0.0      0.0       5.0      24.0      29.1      34.2    410.21
    25    10  2019   116     4     306.8     0.0      0.0    0.0    0.0    0.0      0.0      0.0   -9.90      3.9      0.1      3      0.7      0.5    70      4.5     0.6      13     19.5    0.80     -9     30      9      0     45    12.8     7.0      0     0.15      0.7      0.5      0.3    70    23.7     3.854    26.5    1.022      24        0.38     306.8    179.2    0.80   179.2     355.2     255.2     240.1     188.4     196.4     160.0    0.000     0.000     0.000     0.000     0.000    0.80     0.00    0.00      0   -9.90   -9.00       10.0       18.4       19.3       19.3       19.7       28.9       31.9       31.9       31.9       31.9       31.9       31.9        0.0        0.0        0.0        0.0        0.0        0.0        0.0        0.0        0.0        0.0        0.0        0.0      0.0       4.5      25.0      29.2      33.4    410.21
    26    10  2019   117     4     306.3     0.0      0.0    0.0    0.0    0.0      0.0      0.0   -9.90      4.1      0.1      3      0.7      0.4    66      4.8     0.6      12     20.0    0.80     -9     34     11      0     45    12.4     6.8      0     0.14      0.7      0.4      0.3    66    23.5     3.870    27.1    1.050      24        0.39     306.3    178.7    0.80   178.7     355.2     255.2     241.1     189.1     197.0     160.0    0.000     0.000     0.000     0.000     0.000    0.80     0.00    0.00      0   -9.90   -9.00       10.0       18.2       19.3       19.3       19.7       28.4       31.9       31.9       31.9       31.9       31.9       31.9        0.0        0.0        0.0        0.0        0.0        0.0        0.0        0.0        0.0        0.0        0.0        0.0      0.0       4.8      26.0      30.4      34.8    410.21
    27    10  2019   118     4     305.7     0.0      0.0    0.0    0.0    0.0      0.0      0.0   -9.90      4.0      0.1      3      0.6      0.4    65      4.6     0.5      11     20.0    0.80     -9     35     11      0     45    12.0     6.6      0     0.13      0.6      0.4      0.3    65    23.4     3.885    27.8    1.078      24        0.40     305.7    178.1    0.80   178.1     355.2     255.2     240.4     188.6     196.6     160.0    0.000     0.000     0.000     0.000     0.000    0.80     0.00    0.00      0   -9.90   -9.00       10.0       18.1       19.3       19.3       19.7       28.0       31.9       31.9       31.9       31.9       31.9       31.9        0.0        0.0        0.0        0.0        0.0        0.0        0.0        0.0        0.0        0.0        0.0        0.0      0.0       4.6      26.0      30.2      34.4    410.21
    28    10  2019   119     4     305.2     0.0      0.0    0.0    0.0    0.0      0.0      0.0   -9.90      4.8      0.2      3      0.7      0.4    59      5.5     0.6      10     18.2    0.80     -9     41     15      0     45    11.6     6.4      0     0.12      0.7      0.4      0.3    59    23.3     3.897    28.4    1.106      24        0.41     305.2    177.6    0.80   177.6     355.2     255.2     243.7     190.6     198.4     160.0    0.000     0.000     0.000     0.000     0.000    0.80     0.00    0.00      0   -9.90   -9.00       10.0       17.9       19.3       19.3       19.7       27.6       31.9       31.9       31.9       31.9       31.9       31.9        0.0        0.0        0.0        0.0        0.0        0.0        0.0        0.0        0.0        0.0        0.0        0.0      0.0       5.5      22.4      28.8      35.1    410.21
    29    10  2019   120     4     304.7     0.0      0.0    0.0    0.0    0.0      0.0      0.0   -9.90      5.1      0.2      3      0.7      0.4    55      5.8     0.5       9     17.3    0.80     -9     45     17      0     45    11.1     6.1      0     0.11      0.7      0.4      0.3    55    23.2     3.907    29.0    1.133      24        0.42     304.7    177.1    0.80   177.0     355.2     255.2     245.1     191.5     199.1     160.0    0.000     0.000     0.000     0.000     0.000    0.80     0.00    0.00      0   -9.90   -9.00       10.0       17.8       19.3       19.3       19.7       27.3       31.9       31.9       31.9       31.9       31.9       31.9        0.0        0.0        0.0        0.0        0.0        0.0        0.0        0.0        0.0        0.0        0.0        0.0      0.0       5.9      20.5      28.1      35.7    410.21
    30    10  2019   121     4     304.2     0.0      0.0    0.0    0.0    0.0      0.0      0.0   -9.90      4.3      0.1      3      0.5      0.3    58      4.8     0.4       9     20.1    0.80     -9     42     15      0     45    10.5     5.8      0     0.10      0.5      0.3      0.2    58    23.2     3.917    29.6    1.160      24        0.43     304.2    176.6    0.80   176.6     355.2     255.2     241.5     189.3     197.2     160.0    0.000     0.000     0.000     0.000     0.000    0.80     0.00    0.00      0   -9.90   -9.00       10.0       17.7       19.3       19.3       19.7       27.0       31.9       31.9       31.9       31.9       31.9       31.9        0.0        0.0        0.0        0.0        0.0        0.0        0.0        0.0        0.0        0.0        0.0        0.0      0.0       4.9      26.2      30.9      35.5    410.21
    31    10  2019   122     4     303.8     0.0      0.0    0.0    0.0    0.0      0.0      0.0   -9.90      4.9      0.1      3      0.5      0.3    54      5.4     0.4       8     18.0    0.80     -9     46     18      0     45     9.8     5.4      0     0.09      0.5      0.3      0.2    54    23.1     3.925    30.2    1.186      24        0.44     303.8    176.2    0.80   176.2     355.2     255.2     244.0     190.8     198.5     160.0    0.000     0.000     0.000     0.000     0.000    0.80     0.00    0.00      0   -9.90   -9.00       10.0       17.5       19.3       19.3       19.7       26.7       31.9       31.9       31.9       31.9       31.9       31.9        0.0        0.0        0.0        0.0        0.0        0.0        0.0        0.0        0.0        0.0        0.0        0.0      0.0       5.6      22.0      28.6      35.2    410.21
     1    11  2019   123     4     303.4     0.0      0.0    0.0    0.0    0.0      0.0      0.0   -9.90      5.1      0.1      3      0.4      0.2    52      5.6     0.4       7     18.0    0.80     -9     48     19      0     45     9.0     5.0      0     0.08      0.4      0.2      0.2    52    23.1     3.932    30.8    1.212      24        0.45     303.4    175.8    0.80   175.8     355.2     255.2     244.7     191.3     198.9     160.0    0.000     0.000     0.000     0.000     0.000    0.80     0.00    0.00      0   -9.90   -9.00       10.0       17.4       19.3       19.3       19.7       26.5       31.9       31.9       31.9       31.9       31.9       31.9        0.0        0.0        0.0        0.0        0.0        0.0        0.0        0.0        0.0        0.0        0.0        0.0      0.0       5.8      22.0      29.1      36.2    410.21
     2    11  2019   124     4     303.1     0.0      0.0    0.0    0.0    0.0      0.0      0.0   -9.90      5.4      0.2      3      0.4      0.2    50      5.7     0.3       6     17.7    0.80     -9     50     21      0     45     8.1     4.5      0     0.06      0.4      0.2      0.1    50    23.0     3.937    31.4    1.238      24        0.46     303.1    175.5    0.80   175.5     355.2     255.2     245.4     191.7     199.3     160.0    0.000     0.000     0.000     0.000     0.000    0.80     0.00    0.00      0   -9.90   -9.00       10.0       17.2       19.3       19.3       19.7       26.3       31.9       31.9       31.9       31.9       31.9       31.9        0.0        0.0        0.0        0.0        0.0        0.0        0.0        0.0        0.0        0.0        0.0        0.0      0.0       6.0      21.4      29.0      36.6    410.21
     3    11  2019   125     4     302.8     0.0      0.0    0.0    0.0    0.0      0.0      0.0   -9.90      4.8      0.1      3      0.3      0.1    51      5.0     0.3       5     19.8    0.80     -9     49     20      0     45     7.1     3.9      0     0.05      0.3      0.1      0.1    51    23.0     3.941    32.1    1.263      24        0.47     302.8    175.2    0.80   175.2     355.2     255.2     242.9     190.2     198.0     160.0    0.000     0.000     0.000     0.000     0.000    0.80     0.00    0.00      0   -9.90   -9.00       10.0       17.1       19.3       19.3       19.7       26.2       31.9       31.9       31.9       31.9       31.9       31.9        0.0        0.0        0.0        0.0        0.0        0.0        0.0        0.0        0.0        0.0        0.0        0.0      0.0       5.3      25.6      31.1      36.6    410.21
     4    11  2019   126     4     302.6     0.0      0.0    0.0    0.0    0.0      0.0      0.0   -9.90      5.3      0.1      3      0.2      0.1    48      5.5     0.2       4     19.8    0.80     -9     52     22      0     45     5.9     3.3      0     0.03      0.2      0.1      0.1    48    23.0     3.944    32.7    1.288      24        0.48     302.6    175.0    0.80   175.0     355.2     255.2     244.7     191.3     198.9     160.0    0.000     0.000     0.000     0.000     0.000    0.80     0.00    0.00      0   -9.90   -9.00       10.0       16.9       19.3       19.3       19.7       26.1       31.9       31.9       31.9       31.9       31.9       31.9        0.0        0.0        0.0        0.0        0.0        0.0        0.0        0.0        0.0        0.0        0.0        0.0      0.0       5.8      25.5      31.8      38.1    410.21
     5    11  2019   127     4     302.4     0.0      0.0    0.0    0.0    0.0      0.0      0.0   -9.90      5.1      0.1      3      0.1      0.1    49      5.2     0.2       4     19.0    0.80     -9     51     21      0     45     4.6     2.5      0     0.02      0.1      0.1      0.0    49    23.0     3.945    32.9    1.298      24        0.48     302.4    174.8    0.80   174.8     355.2     255.2     243.3     190.4     198.2     160.0    0.000     0.000     0.000     0.000     0.000    0.80     0.00    0.00      0   -9.90   -9.00       10.0       16.8       19.3       19.3       19.7       26.0       31.9       31.9       31.9       31.9       31.9       31.9        0.0        0.0        0.0        0.0        0.0        0.0        0.0        0.0        0.0        0.0        0.0        0.0      0.0       5.4      24.0      30.0      36.0    410.21
     6    11  2019   128     4     302.3     0.0      0.0    0.0    0.0    0.0      0.0      0.0   -9.90      5.0      0.1      3      0.0      0.0    49      5.1     0.2       3     20.1    0.80     -9     51     21      0     45     3.1     1.7      0     0.01      0.0      0.0      0.0    49    22.9     3.946    32.9    1.298      24        0.48     302.3    174.7    0.80   174.6     355.2     255.2     242.6     189.9     197.8     160.0    0.000     0.000     0.000     0.000     0.000    0.80     0.00    0.00      0   -9.90   -9.00       10.0       16.6       19.3       19.3       19.7       26.0       31.9       31.9       31.9       31.9       31.9       31.9        0.0        0.0        0.0        0.0        0.0        0.0        0.0        0.0        0.0        0.0        0.0        0.0      0.0       5.2      26.2      31.4      36.6    410.21
     7    11  2019   129     4     302.1     0.0      0.0    0.0    0.0    0.0      0.0      0.0   -9.90      6.4      0.2      3      0.0      0.0    45      6.4     0.2       3     15.4    0.80     -9     55     25      0     45     1.4     0.7      0     0.00      0.0      0.0      0.0    45    22.9     3.946    32.9    1.298      24        0.48     302.1    174.5    0.80   174.5     355.2     255.2     246.9     192.6     200.1     160.0    0.000     0.000     0.000     0.000     0.000    0.80     0.00    0.00      0   -9.90   -9.00       10.0       16.5       19.3       19.3       19.7       26.0       31.9       31.9       31.9       31.9       31.9       31.9        0.0        0.0        0.0        0.0        0.0        0.0        0.0        0.0        0.0        0.0        0.0        0.0      0.0       6.4      16.8      26.7      36.6    410.21
     8    11  2019    -9     0     301.9     0.0      0.0    0.0    0.0    0.0      0.0      0.0   -9.90      5.9      0.2      3      0.0      0.0   100      5.9     0.2       3     18.0    0.80     -9     -9     24      0     -9     0.0     0.0      0    -9.00      0.0      0.0      0.0   100    22.9     3.946    32.9    1.298      24        0.48     301.9    174.3    0.80   174.3     355.2     255.2     245.1     191.5     199.1     160.0    0.000     0.000     0.000     0.000     0.000    0.80     0.00    0.00      0   -9.90   -9.00       10.0       16.3       19.3       19.3       19.7       26.0       31.9       31.9       31.9       31.9       31.9       31.9        0.0        0.0        0.0        0.0        0.0        0.0        0.0        0.0        0.0        0.0        0.0        0.0      0.0       5.9      22.0      29.5      37.0    410.21
     9    11  2019    -9     0     301.8     0.0      0.0    0.0    0.0    0.0      0.0      0.0   -9.90      5.5      0.1      3      0.0      0.0   100      5.5     0.1       3     18.7    0.80     -9     -9     24      0     -9     0.0     0.0      0    -9.00      0.0      0.0      0.0   100    22.9     3.946    32.9    1.298      24        0.48     301.8    174.2    0.80   174.2     355.2     255.2     245.1     190.6     199.1     160.0    0.000     0.000     0.000     0.000     0.000    0.80     0.00    0.00      0   -9.90   -9.00       10.0       16.2       19.3       19.3       19.7       26.0       31.9       31.9       31.9       31.9       31.9       31.9        0.0        0.0        0.0        0.0        0.0        0.0        0.0        0.0        0.0        0.0        0.0        0.0      0.0       5.5      23.4      29.9      36.4    410.21
    10    11  2019    -9     0     301.7     0.0      0.0    0.0    0.0    0.0      0.0      0.0   -9.90      5.6      0.1      2      0.0      0.0   100      5.6     0.1       2     18.0    0.80     -9     -9     24      0     -9     0.0     0.0      0    -9.00      0.0      0.0      0.0   100    22.9     3.946    32.9    1.298      24        0.48     301.7    174.1    0.80   174.0     355.2     255.2     245.1     190.8     199.1     160.0    0.000     0.000     0.000     0.000     0.000    0.80     0.00    0.00      0   -9.90   -9.00       10.0       16.1       19.3       19.3       19.7       26.0       31.9       31.9       31.9       31.9       31.9       31.9        0.0        0.0        0.0        0.0        0.0        0.0        0.0        0.0        0.0        0.0        0.0        0.0      0.0       5.6      22.0      28.9      35.8    410.21
