AquaCrop 6.0 (March 2017) - Output created on (date) : 14/07/2022   at (time) : 11:09:19

   Run:   1
   Day Month  Year   DAP Stage   WC(1.20)   Rain     Irri   Surf   Infilt   RO    Drain       CR    Zgwt       Ex       E     E/Ex     Trx       Tr  Tr/Trx    ETx      ET  ET/ETx      GD       Z     StExp  StSto  StSen StSalt StWeed   CC      CCw     StTr  Kc(Tr)     Trx       Tr      TrW  Tr/Trx   WP    Biomass     HI  YieldPart  Brelative    WPet  WC(1.20) Wr(0.80)     Z       Wr    Wr(SAT)    Wr(FC)   Wr(exp)   Wr(sto)   Wr(sen)   Wr(PWP)    SaltIn    SaltOut   SaltUp   Salt(1.20)  SaltZ     Z       ECe    ECsw   StSalt  Zgwt    ECgw       WC01       WC 2       WC 3       WC 4       WC 5       WC 6       WC 7       WC 8       WC 9       WC10       WC11       WC12      ECe01      ECe 2      ECe 3      ECe 4      ECe 5      ECe 6      ECe 7      ECe 8      ECe 9      ECe10      ECe11      ECe12     Rain       ETo      Tmin      Tavg      Tmax      CO2
                                      mm      mm       mm     mm     mm     mm       mm       mm      m        mm       mm     %        mm       mm    %        mm      mm       %    °C-day     m       %      %      %      %      %      %       %       %       -        mm       mm       mm    %     g/m2    ton/ha      %    ton/ha       %       kg/m3      mm       mm       m       mm        mm        mm        mm        mm        mm         mm    ton/ha    ton/ha    ton/ha    ton/ha    ton/ha     m      dS/m    dS/m      %     m      dS/m       0.05       0.15       0.25       0.35       0.45       0.55       0.65       0.75       0.85       0.95       1.05       1.15       0.05       0.15       0.25       0.35       0.45       0.55       0.65       0.75       0.85       0.95       1.05       1.15       mm        mm       °C        °C        °C       ppm
     2     7  2009     1     1     384.8     9.3      0.0    0.0    6.4    2.9      0.0      0.0   -9.90      4.4      4.4    100      0.0      0.0   100      4.4     4.4     100     18.0    0.30     -9     -9     -9      0     -9     0.0     0.0      0    -9.00      0.0      0.0      0.0   100     0.0     0.000    -9.9    0.000      -9        0.00     384.8    257.2    0.30    97.7     133.2      95.7      90.7      70.2      71.1      60.0    0.000     0.000     0.000     0.000     0.000    0.30     0.00    0.00      0   -9.90   -9.00       33.9       31.9       31.9       31.9       31.9       31.9       31.9       31.9       31.9       31.9       31.9       31.9        0.0        0.0        0.0        0.0        0.0        0.0        0.0        0.0        0.0        0.0        0.0        0.0      9.3       4.0      22.0      28.4      34.8    387.43
     3     7  2009     2     1     380.8     0.0      0.0    0.0    0.0    0.0      0.0      0.0   -9.90      4.3      4.0     93      0.0      0.0   100      4.3     4.0      93     19.1    0.30     -9     -9     -9      0     -9     0.0     0.0      0    -9.00      0.0      0.0      0.0   100     0.0     0.000    -9.9    0.000      -9        0.00     380.8    253.2    0.30    93.5     133.2      95.7      90.7      70.2      71.1      60.0    0.000     0.000     0.000     0.000     0.000    0.30     0.00    0.00      0   -9.90   -9.00       29.0       32.4       32.1       32.0       31.9       31.9       31.9       31.9       31.9       31.9       31.9       31.9        0.0        0.0        0.0        0.0        0.0        0.0        0.0        0.0        0.0        0.0        0.0        0.0      0.0       3.9      24.1      29.7      35.3    387.43
     4     7  2009     3     1     378.0     0.0      0.0    0.0    0.0    0.0      0.1      0.0   -9.90      4.3      2.7     64      0.0      0.0   100      4.3     2.7      64     20.2    0.30     -9     -9     -9      0     -9     0.0     0.0      0    -9.00      0.0      0.0      0.0   100     0.0     0.000    -9.9    0.000      -9        0.00     378.0    250.3    0.30    90.5     133.2      95.7      90.7      70.2      71.1      60.0    0.000     0.000     0.000     0.000     0.000    0.30     0.00    0.00      0   -9.90   -9.00       26.3       32.2       32.0       32.0       32.0       31.9       31.9       31.9       31.9       31.9       31.9       31.9        0.0        0.0        0.0        0.0        0.0        0.0        0.0        0.0        0.0        0.0        0.0        0.0      0.0       3.9      26.4      31.9      37.5    387.43
     5     7  2009     4     1     387.0    14.0      0.0    0.0   11.3    2.7      0.1      0.0   -9.90      2.2      2.2    100      0.0      0.0   100      2.2     2.2     100     19.1    0.30     -9     -9     -9      0     -9     0.0     0.0      0    -9.00      0.0      0.0      0.0   100     0.0     0.000    -9.9    0.000      -9        0.00     387.0    259.3    0.30    99.5     133.2      95.7      90.7      68.6      71.1      60.0    0.000     0.000     0.000     0.000     0.000    0.30     0.00    0.00      0   -9.90   -9.00       35.4       32.1       32.0       32.0       32.0       32.0       31.9       31.9       31.9       31.9       31.9       31.9        0.0        0.0        0.0        0.0        0.0        0.0        0.0        0.0        0.0        0.0        0.0        0.0     14.0       2.0      25.5      27.1      28.7    387.43
     6     7  2009     5     1     382.7     0.0      0.0    0.0    0.0    0.0      0.2      0.0   -9.90      4.1      4.1    100      0.0      0.0   100      4.1     4.1     100     20.0    0.30     -9     -9     -9      0     -9     0.0     0.0      0    -9.00      0.0      0.0      0.0   100     0.0     0.000    -9.9    0.000      -9        0.00     382.7    254.9    0.30    95.0     133.2      95.7      90.7      70.0      71.1      60.0    0.000     0.000     0.000     0.000     0.000    0.30     0.00    0.00      0   -9.90   -9.00       29.8       32.9       32.4       32.1       32.0       32.0       32.0       31.9       31.9       31.9       31.9       31.9        0.0        0.0        0.0        0.0        0.0        0.0        0.0        0.0        0.0        0.0        0.0        0.0      0.0       3.7      26.0      31.2      36.4    387.43
     7     7  2009     6     1     378.4     0.0      0.0    0.0    0.0    0.0      0.3      0.0   -9.90      4.0      4.0    100      0.0      0.0   100      4.0     4.0     100     19.6    0.30     -9     -9     -9      0     -9     0.0     0.0      0    -9.00      0.0      0.0      0.0   100     0.0     0.000    -9.9    0.000      -9        0.00     378.4    250.7    0.30    90.5     133.2      95.7      90.7      69.9      71.1      60.0    0.000     0.000     0.000     0.000     0.000    0.30     0.00    0.00      0   -9.90   -9.00       25.8       32.4       32.2       32.2       32.1       32.0       32.0       32.0       32.0       31.9       31.9       31.9        0.0        0.0        0.0        0.0        0.0        0.0        0.0        0.0        0.0        0.0        0.0        0.0      0.0       3.6      25.2      30.0      34.9    387.43
     8     7  2009     7     2     375.2     0.0      0.0    0.0    0.0    0.0      0.4      0.0   -9.90      3.6      2.8     78      0.0      0.0   100      3.6     2.9      79     20.1    0.30     -9      0      0      0     45     0.2     0.1      0     0.00      0.0      0.0      0.0   100    34.2     0.001    -9.9    0.000      74        0.00     375.2    247.4    0.30    87.3     133.2      95.7      88.4      69.7      69.7      60.0    0.000     0.000     0.000     0.000     0.000    0.30     0.00    0.00      0   -9.90   -9.00       23.0       32.2       32.1       32.1       32.1       32.0       32.0       32.0       32.0       32.0       32.0       31.9        0.0        0.0        0.0        0.0        0.0        0.0        0.0        0.0        0.0        0.0        0.0        0.0      0.0       3.3      26.2      30.2      34.2    387.43
     9     7  2009     8     2     372.5     0.0      0.0    0.0    0.0    0.0      0.4      0.0   -9.90      4.3      2.3     53      0.0      0.0   100      4.3     2.3      53     20.5    0.30     -9      0      0      0     45     0.2     0.1      0     0.00      0.0      0.0      0.0   100    34.2     0.002    -9.9    0.000      69        0.00     372.5    244.7    0.30    84.8     133.2      95.7      89.2      70.2      70.2      60.0    0.000     0.000     0.000     0.000     0.000    0.30     0.00    0.00      0   -9.90   -9.00       20.7       32.1       32.0       32.0       32.0       32.0       32.0       32.0       32.0       32.0       32.0       31.9        0.0        0.0        0.0        0.0        0.0        0.0        0.0        0.0        0.0        0.0        0.0        0.0      0.0       3.9      27.0      32.1      37.3    387.43
    10     7  2009     9     2     370.7     0.0      0.0    0.0    0.0    0.0      0.3      0.0   -9.90      3.8      1.5     39      0.0      0.0   100      3.8     1.5      39     21.0    0.30     -9      0      0      0     45     0.3     0.1      0     0.00      0.0      0.0      0.0   100    34.2     0.003    -9.9    0.000      66        0.00     370.7    242.9    0.30    83.2     133.2      95.7      88.7      69.8      69.8      60.0    0.000     0.000     0.000     0.000     0.000    0.30     0.00    0.00      0   -9.90   -9.00       19.2       32.0       32.0       31.9       31.9       31.9       31.9       31.9       31.9       31.9       31.9       31.9        0.0        0.0        0.0        0.0        0.0        0.0        0.0        0.0        0.0        0.0        0.0        0.0      0.0       3.5      28.0      32.3      36.5    387.43
    11     7  2009    10     2     370.6     4.8      0.0    0.0    4.8    0.0      0.2      0.0   -9.90      4.6      4.6    100      0.0      0.0   100      4.6     4.6     100     19.0    0.30      2      0      0      0     45     0.3     0.2      0     0.01      0.0      0.0      0.0   100    34.2     0.005    -9.9    0.000      64        0.00     370.6    242.9    0.30    83.3     133.2      95.7      89.6      70.4      70.4      60.0    0.000     0.000     0.000     0.000     0.000    0.30     0.00    0.00      0   -9.90   -9.00       19.4       31.9       31.9       31.9       31.9       31.9       31.9       31.9       31.9       31.9       31.9       31.9        0.0        0.0        0.0        0.0        0.0        0.0        0.0        0.0        0.0        0.0        0.0        0.0      4.8       4.2      24.0      30.3      36.6    387.43
    12     7  2009    11     2     371.0     4.8      0.0    0.0    4.8    0.0      0.1      0.0   -9.90      4.3      4.3    100      0.0      0.0   100      4.3     4.3     100     20.5    0.30      1      0      0      0     45     0.3     0.2      0     0.01      0.0      0.0      0.0   100    34.2     0.006    -9.9    0.000      61        0.00     371.0    243.3    0.30    83.8     133.2      95.7      89.2      70.2      70.2      60.0    0.000     0.000     0.000     0.000     0.000    0.30     0.00    0.00      0   -9.90   -9.00       19.9       31.9       31.9       31.9       31.9       31.9       31.9       31.9       31.9       31.9       31.9       31.9        0.0        0.0        0.0        0.0        0.0        0.0        0.0        0.0        0.0        0.0        0.0        0.0      4.8       3.9      27.0      32.3      37.6    387.43
    13     7  2009    12     2     380.4    14.3      0.0    0.0   13.1    1.2      0.1      0.0   -9.90      3.6      3.6    100      0.0      0.0   100      3.6     3.6     100     19.5    0.30      0      0      0      0     45     0.4     0.2      0     0.01      0.0      0.0      0.0   100    34.2     0.008    -9.9    0.000      59        0.00     380.4    252.8    0.30    93.2     133.2      95.7      88.4      69.7      69.7      60.0    0.000     0.000     0.000     0.000     0.000    0.30     0.00    0.00      0   -9.90   -9.00       29.4       31.9       31.9       31.9       31.9       31.9       31.9       31.9       31.9       31.9       31.9       31.9        0.0        0.0        0.0        0.0        0.0        0.0        0.0        0.0        0.0        0.0        0.0        0.0     14.3       3.3      25.0      29.4      33.8    387.43
    14     7  2009    13     2     380.6     4.8      0.0    0.0    4.4    0.4      0.0      0.0   -9.90      4.2      4.2    100      0.0      0.0   100      4.2     4.2     100     19.8    0.31      0      0      0      0     45     0.4     0.2      0     0.01      0.0      0.0      0.0   100    34.2     0.010    -9.9    0.000      57        0.00     380.6    253.0    0.31    95.6     136.2      97.8      91.1      71.6      71.6      61.3    0.000     0.000     0.000     0.000     0.000    0.31     0.00    0.00      0   -9.90   -9.00       29.7       31.9       31.9       31.9       31.9       31.9       31.9       31.9       31.9       31.9       31.9       31.9        0.0        0.0        0.0        0.0        0.0        0.0        0.0        0.0        0.0        0.0        0.0        0.0      4.8       3.8      25.5      30.6      35.7    387.43
    15     7  2009    14     2     384.0     9.5      0.0    0.0    7.5    2.0      0.0      0.0   -9.90      4.0      4.0    100      0.0      0.0   100      4.1     4.1     100     18.3    0.31      0      0      0      0     45     0.4     0.2      0     0.01      0.0      0.0      0.0   100    34.2     0.012    -9.9    0.000      55        0.00     384.0    256.4    0.31   101.4     139.4     100.2      93.1      73.3      73.3      62.8    0.000     0.000     0.000     0.000     0.000    0.31     0.00    0.00      0   -9.90   -9.00       33.1       31.9       31.9       31.9       31.9       31.9       31.9       31.9       31.9       31.9       31.9       31.9        0.0        0.0        0.0        0.0        0.0        0.0        0.0        0.0        0.0        0.0        0.0        0.0      9.5       3.7      22.6      27.9      33.1    387.43
    16     7  2009    15     2     382.1     2.6      0.0    0.0    2.4    0.2      0.0      0.0   -9.90      4.5      4.2     95      0.0      0.0   100      4.5     4.3      95     18.6    0.32      0      0      0      0     45     0.5     0.3      0     0.01      0.0      0.0      0.0   100    34.2     0.014    -9.9    0.000      52        0.00     382.1    254.5    0.32   101.7     142.6     102.5      95.8      75.3      75.3      64.2    0.000     0.000     0.000     0.000     0.000    0.32     0.00    0.00      0   -9.90   -9.00       30.7       32.2       32.0       31.9       31.9       31.9       31.9       31.9       31.9       31.9       31.9       31.9        0.0        0.0        0.0        0.0        0.0        0.0        0.0        0.0        0.0        0.0        0.0        0.0      2.6       4.1      23.3      29.4      35.5    387.43
    17     7  2009    16     2     379.2     0.0      0.0    0.0    0.0    0.0      0.0      0.0   -9.90      4.2      2.8     66      0.0      0.0   100      4.3     2.9      67     19.5    0.33      0      0      0      0     45     0.6     0.3      0     0.01      0.0      0.0      0.0   100    34.2     0.016    -9.9    0.000      50        0.00     379.2    251.6    0.33   101.0     145.8     104.7      97.6      76.8      76.8      65.7    0.000     0.000     0.000     0.000     0.000    0.33     0.00    0.00      0   -9.90   -9.00       27.9       32.1       32.0       32.0       31.9       31.9       31.9       31.9       31.9       31.9       31.9       31.9        0.0        0.0        0.0        0.0        0.0        0.0        0.0        0.0        0.0        0.0        0.0        0.0      0.0       3.9      25.0      30.4      35.7    387.43
    18     7  2009    17     2     377.1     0.0      0.0    0.0    0.0    0.0      0.1      0.0   -9.90      4.0      2.0     49      0.0      0.0   100      4.1     2.0      49     19.3    0.34      0      0      0      0     45     0.6     0.3      0     0.01      0.0      0.0      0.0   100    34.2     0.019    -9.9    0.000      48        0.00     377.1    249.5    0.34   101.1     148.8     106.9      99.4      78.2      78.2      67.0    0.000     0.000     0.000     0.000     0.000    0.34     0.00    0.00      0   -9.90   -9.00       25.9       32.0       31.9       31.9       31.9       31.9       31.9       31.9       31.9       31.9       31.9       31.9        0.0        0.0        0.0        0.0        0.0        0.0        0.0        0.0        0.0        0.0        0.0        0.0      0.0       3.7      24.6      29.6      34.6    387.43
    19     7  2009    18     2     375.6     0.0      0.0    0.0    0.0    0.0      0.1      0.0   -9.90      3.4      1.3     40      0.0      0.0   100      3.4     1.4      40     20.6    0.34      0      0      0      0     45     0.7     0.4      0     0.01      0.0      0.0      0.0   100    34.2     0.022    -9.9    0.000      46        0.00     375.6    248.0    0.34   101.8     151.9     109.1     100.5      79.2      79.2      68.4    0.000     0.000     0.000     0.000     0.000    0.34     0.00    0.00      0   -9.90   -9.00       24.5       32.0       31.9       31.9       31.9       31.9       31.9       31.9       31.9       31.9       31.9       31.9        0.0        0.0        0.0        0.0        0.0        0.0        0.0        0.0        0.0        0.0        0.0        0.0      0.0       3.1      27.1      30.4      33.7    387.43
    20     7  2009    19     2     374.8     2.6      0.0    0.0    2.6    0.0      0.1      0.0   -9.90      3.4      3.3     99      0.0      0.0   100      3.4     3.4      99     20.6    0.35      0      0      0      0     45     0.8     0.4      0     0.01      0.0      0.0      0.0   100    34.2     0.026    -9.9    0.000      44        0.00     374.8    247.1    0.35   103.1     154.9     111.3     102.5      80.8      80.8      69.8    0.000     0.000     0.000     0.000     0.000    0.35     0.00    0.00      0   -9.90   -9.00       23.7       31.9       31.9       31.9       31.9       31.9       31.9       31.9       31.9       31.9       31.9       31.9        0.0        0.0        0.0        0.0        0.0        0.0        0.0        0.0        0.0        0.0        0.0        0.0      2.6       3.1      27.3      30.9      34.4    387.43
    21     7  2009    20     2     378.8     9.6      0.0    0.0    8.9    0.7      0.1      0.0   -9.90      4.7      4.7    100      0.1      0.1   100      4.7     4.7     100     16.9    0.36      0      0      0      0     45     0.8     0.5      0     0.02      0.1      0.1      0.0   100    34.2     0.029    -9.9    0.000      42        0.00     378.8    251.2    0.36   109.4     157.8     113.4     106.3      83.5      83.5      71.1    0.000     0.000     0.000     0.000     0.000    0.36     0.00    0.00      0   -9.90   -9.00       27.8       31.9       31.9       31.9       31.9       31.9       31.9       31.9       31.9       31.9       31.9       31.9        0.0        0.0        0.0        0.0        0.0        0.0        0.0        0.0        0.0        0.0        0.0        0.0      9.6       4.3      19.9      27.2      34.5    387.43
    22     7  2009    21     2     374.7     0.0      0.0    0.0    0.0    0.0      0.0      0.0   -9.90      4.0      4.0    100      0.1      0.1   100      4.1     4.1     100     19.5    0.36      0      0      0      0     45     0.9     0.5      0     0.02      0.1      0.1      0.0   100    34.2     0.034    -9.9    0.000      40        0.00     374.7    247.1    0.36   107.4     160.7     115.5     107.3      84.4      84.4      72.4    0.000     0.000     0.000     0.000     0.000    0.36     0.00    0.00      0   -9.90   -9.00       23.8       31.9       31.9       31.9       31.9       31.9       31.9       31.9       31.9       31.9       31.9       31.9        0.0        0.0        0.0        0.0        0.0        0.0        0.0        0.0        0.0        0.0        0.0        0.0      0.0       3.7      25.0      29.8      34.5    387.43
    23     7  2009    22     2     371.4     0.0      0.0    0.0    0.0    0.0      0.0      0.0   -9.90      4.1      3.2     78      0.1      0.1   100      4.2     3.3      79     20.1    0.37      0      0      0      0     45     1.0     0.6      0     0.02      0.1      0.1      0.1   100    34.2     0.038    -9.9    0.000      38        0.00     371.4    243.8    0.37   106.1     163.6     117.5     109.4      86.1      86.1      73.7    0.000     0.000     0.000     0.000     0.000    0.37     0.00    0.00      0   -9.90   -9.00       20.5       31.9       31.9       31.9       31.9       31.9       31.9       31.9       31.9       31.9       31.9       31.9        0.0        0.0        0.0        0.0        0.0        0.0        0.0        0.0        0.0        0.0        0.0        0.0      0.0       3.8      26.2      31.1      36.1    387.43
    24     7  2009    23     2     372.2     4.8      0.0    0.0    4.8    0.0      0.0      0.0   -9.90      3.9      3.9    100      0.1      0.1   100      4.0     4.0     100     20.8    0.37      0      0      0      0     45     1.2     0.6      0     0.02      0.1      0.1      0.1   100    34.2     0.044    -9.9    0.000      37        0.00     372.2    244.6    0.37   109.0     166.4     119.6     111.0      87.3      87.3      75.0    0.000     0.000     0.000     0.000     0.000    0.37     0.00    0.00      0   -9.90   -9.00       21.3       31.9       31.9       31.9       31.9       31.9       31.9       31.9       31.9       31.9       31.9       31.9        0.0        0.0        0.0        0.0        0.0        0.0        0.0        0.0        0.0        0.0        0.0        0.0      4.8       3.6      27.5      31.8      36.0    387.43
    25     7  2009    24     2     373.4     4.8      0.0    0.0    4.8    0.0      0.0      0.0   -9.90      3.6      3.6    100      0.1      0.1   100      3.6     3.6     100     20.7    0.38      0      0      0      0     45     1.3     0.7      0     0.02      0.1      0.1      0.1   100    34.2     0.049    -9.9    0.000      35        0.00     373.4    245.8    0.38   112.1     169.2     121.6     112.3      88.5      88.5      76.2    0.000     0.000     0.000     0.000     0.000    0.38     0.00    0.00      0   -9.90   -9.00       22.5       31.9       31.9       31.9       31.9       31.9       31.9       31.9       31.9       31.9       31.9       31.9        0.0        0.0        0.0        0.0        0.0        0.0        0.0        0.0        0.0        0.0        0.0        0.0      4.8       3.3      27.4      31.0      34.6    387.43
    26     7  2009    25     2     370.2     0.0      0.0    0.0    0.0    0.0      0.0      0.0   -9.90      3.8      3.1     83      0.1      0.1   100      3.8     3.2      84     20.5    0.39      0      0      0      0     45     1.4     0.8      0     0.03      0.1      0.1      0.1   100    34.2     0.056    -9.9    0.000      33        0.00     370.2    242.6    0.39   110.9     172.0     123.6     114.5      90.1      90.1      77.5    0.000     0.000     0.000     0.000     0.000    0.39     0.00    0.00      0   -9.90   -9.00       19.3       31.8       31.9       31.9       31.9       31.9       31.9       31.9       31.9       31.9       31.9       31.9        0.0        0.0        0.0        0.0        0.0        0.0        0.0        0.0        0.0        0.0        0.0        0.0      0.0       3.5      27.0      31.1      35.1    387.43
    27     7  2009    26     2     383.0    19.4      0.0    0.0   16.9    2.5      0.0      0.0   -9.90      4.0      4.0    100      0.1      0.1   100      4.1     4.1     100     19.3    0.39      0      0      0      0     45     1.6     0.9      0     0.03      0.1      0.1      0.1   100    34.2     0.063    -9.9    0.000      32        0.00     383.0    255.4    0.39   125.7     174.7     125.5     116.7      91.8      91.8      78.7    0.000     0.000     0.000     0.000     0.000    0.39     0.00    0.00      0   -9.90   -9.00       32.2       31.8       31.9       31.9       31.9       31.9       31.9       31.9       31.9       31.9       31.9       31.9        0.0        0.0        0.0        0.0        0.0        0.0        0.0        0.0        0.0        0.0        0.0        0.0     19.4       3.7      24.5      29.4      34.2    387.43
    28     7  2009    27     2     379.3     0.0      0.0    0.0    0.0    0.0      0.0      0.0   -9.90      3.6      3.6    100      0.1      0.1   100      3.7     3.7     100     20.0    0.40      0      0      0      0     45     1.8     1.0      0     0.03      0.1      0.1      0.1   100    34.2     0.071    -9.9    0.000      30        0.00     379.3    251.7    0.40   123.9     177.4     127.5     117.9      92.9      92.9      79.9    0.000     0.000     0.000     0.000     0.000    0.40     0.00    0.00      0   -9.90   -9.00       28.3       31.9       31.9       31.9       31.9       31.9       31.9       31.9       31.9       31.9       31.9       31.9        0.0        0.0        0.0        0.0        0.0        0.0        0.0        0.0        0.0        0.0        0.0        0.0      0.0       3.4      26.0      30.1      34.2    387.43
    29     7  2009    28     2     380.9     6.5      0.0    0.0    5.8    0.7      0.0      0.0   -9.90      4.0      4.0    100      0.1      0.1   100      4.2     4.2     100     18.2    0.41      0      0      0      0     45     1.9     1.1      0     0.03      0.1      0.1      0.1   100    34.2     0.079    -9.9    0.000      29        0.00     380.9    253.3    0.41   127.5     180.1     129.4     120.5      94.7      94.7      81.1    0.000     0.000     0.000     0.000     0.000    0.41     0.00    0.00      0   -9.90   -9.00       30.0       31.9       31.9       31.9       31.9       31.9       31.9       31.9       31.9       31.9       31.9       31.9        0.0        0.0        0.0        0.0        0.0        0.0        0.0        0.0        0.0        0.0        0.0        0.0      6.5       3.8      22.4      27.8      33.1    387.43
    30     7  2009    29     2     385.5    12.9      0.0    0.0    9.2    3.7      0.0      0.0   -9.90      4.5      4.5    100      0.2      0.2   100      4.6     4.6     100     18.3    0.41      0      0      0      0     45     2.2     1.2      0     0.04      0.2      0.2      0.1   100    34.2     0.089    -9.9    0.000      27        0.00     385.5    257.9    0.41   134.0     182.8     131.3     123.0      96.6      96.6      82.3    0.000     0.000     0.000     0.000     0.000    0.41     0.00    0.00      0   -9.90   -9.00       34.6       31.9       31.9       31.9       31.9       31.9       31.9       31.9       31.9       31.9       31.9       31.9        0.0        0.0        0.0        0.0        0.0        0.0        0.0        0.0        0.0        0.0        0.0        0.0     12.9       4.2      22.5      28.5      34.5    387.43
    31     7  2009    30     2     386.5     6.5      0.0    0.0    5.0    1.5      0.0      0.0   -9.90      3.9      3.9    100      0.2      0.2   100      4.1     4.1     100     19.5    0.42      0      0      0      0     45     2.4     1.3      0     0.04      0.2      0.2      0.1   100    34.2     0.100    -9.9    0.000      26        0.00     386.5    258.8    0.42   136.7     185.4     133.2     123.8      97.4      97.4      83.5    0.000     0.000     0.000     0.000     0.000    0.42     0.00    0.00      0   -9.90   -9.00       34.4       32.6       32.2       32.0       31.9       31.9       31.9       31.9       31.9       31.9       31.9       31.9        0.0        0.0        0.0        0.0        0.0        0.0        0.0        0.0        0.0        0.0        0.0        0.0      6.5       3.7      25.0      29.6      34.2    387.43
     1     8  2009    31     2     382.7     0.0      0.0    0.0    0.0    0.0      0.1      0.0   -9.90      3.8      3.5     92      0.2      0.2   100      4.0     3.6      92     20.1    0.42      0      0      0      0     45     2.7     1.5      0     0.05      0.2      0.2      0.1   100    34.2     0.111    -9.9    0.000      25        0.00     382.7    255.0    0.42   134.6     188.0     135.1     125.4      98.7      98.7      84.7    0.000     0.000     0.000     0.000     0.000    0.42     0.00    0.00      0   -9.90   -9.00       29.7       32.9       32.4       32.1       32.0       32.0       32.0       31.9       31.9       31.9       31.9       31.9        0.0        0.0        0.0        0.0        0.0        0.0        0.0        0.0        0.0        0.0        0.0        0.0      0.0       3.6      26.3      30.5      34.8    387.43
     2     8  2009    32     2     386.4    11.2      0.0    0.0    8.4    2.8      0.3      0.0   -9.90      4.2      4.2    100      0.2      0.2   100      4.4     4.4     100     18.6    0.43      0      0      0      0     45     3.0     1.6      0     0.05      0.2      0.2      0.2   100    34.2     0.125    -9.9    0.000      24        0.00     386.4    258.6    0.43   139.9     190.6     136.9     127.9     100.5     100.5      85.9    0.000     0.000     0.000     0.000     0.000    0.43     0.00    0.00      0   -9.90   -9.00       33.6       32.5       32.2       32.2       32.1       32.0       32.0       32.0       32.0       32.0       31.9       31.9        0.0        0.0        0.0        0.0        0.0        0.0        0.0        0.0        0.0        0.0        0.0        0.0     11.2       4.0      23.3      28.7      34.1    387.43
     3     8  2009    33     2     390.2    16.8      0.0    0.0    8.9    7.9      0.4      0.0   -9.90      4.4      4.4    100      0.2      0.2   100      4.6     4.6     100     17.4    0.44      0      0      0      0     45     3.3     1.8      0     0.06      0.2      0.2      0.2   100    34.2     0.139    -9.9    0.000      23        0.00     390.2    262.3    0.44   145.4     193.2     138.8     130.0     102.1     102.1      87.0    0.000     0.000     0.000     0.000     0.000    0.44     0.00    0.00      0   -9.90   -9.00       37.1       32.6       32.3       32.1       32.1       32.0       32.0       32.0       32.0       32.0       32.0       32.0        0.0        0.0        0.0        0.0        0.0        0.0        0.0        0.0        0.0        0.0        0.0        0.0     16.8       4.2      20.8      27.2      33.6    387.43
     4     8  2009    34     2     385.4     0.0      0.0    0.0    0.0    0.0      0.6      0.0   -9.90      4.0      4.0    100      0.3      0.3   100      4.3     4.3     100     19.3    0.44      0      0      0      0     45     3.7     2.0      0     0.06      0.3      0.3      0.2   100    34.2     0.155    -9.9    0.000      22        0.00     385.4    257.5    0.44   142.3     195.7     140.6     131.1     103.1     103.1      88.2    0.000     0.000     0.000     0.000     0.000    0.44     0.00    0.00      0   -9.90   -9.00       30.5       33.6       32.8       32.3       32.1       32.1       32.0       32.0       32.0       32.0       32.0       32.0        0.0        0.0        0.0        0.0        0.0        0.0        0.0        0.0        0.0        0.0        0.0        0.0      0.0       3.9      24.5      29.4      34.3    387.43
     5     8  2009    35     2     388.2    11.2      0.0    0.0    8.0    3.2      0.7      0.0   -9.90      4.2      4.2    100      0.3      0.3   100      4.5     4.5     100     19.1    0.45      0      0      0      0     45     4.1     2.3      0     0.07      0.3      0.3      0.2   100    34.2     0.173    -9.9    0.000      21        0.00     388.2    260.2    0.45   146.7     198.3     142.4     133.2     104.7     104.7      89.3    0.000     0.000     0.000     0.000     0.000    0.45     0.00    0.00      0   -9.90   -9.00       34.1       32.9       32.4       32.4       32.2       32.1       32.1       32.0       32.0       32.0       32.0       32.0        0.0        0.0        0.0        0.0        0.0        0.0        0.0        0.0        0.0        0.0        0.0        0.0     11.2       4.1      24.3      29.7      35.1    387.43
     6     8  2009    36     2     391.4    12.7      0.0    0.0    7.7    5.0      0.8      0.0   -9.90      3.5      3.5    100      0.3      0.3   100      3.7     3.7     100     19.8    0.45      0      0      0      0     45     4.6     2.5      0     0.08      0.3      0.3      0.2   100    34.2     0.193    -9.9    0.000      20        0.00     391.4    263.3    0.45   151.6     200.8     144.3     133.5     105.1     105.1      90.4    0.000     0.000     0.000     0.000     0.000    0.45     0.00    0.00      0   -9.90   -9.00       37.1       33.0       32.4       32.2       32.2       32.2       32.1       32.1       32.0       32.0       32.0       32.0        0.0        0.0        0.0        0.0        0.0        0.0        0.0        0.0        0.0        0.0        0.0        0.0     12.7       3.4      25.5      29.2      32.9    387.43
     7     8  2009    37     2     392.4     8.5      0.0    0.0    6.0    2.5      0.9      0.0   -9.90      3.7      3.7    100      0.3      0.3   100      4.1     4.1     100     18.9    0.46      0      0      0      0     45     5.1     2.8      0     0.09      0.3      0.3      0.2   100    34.2     0.216    -9.9    0.000      19        0.00     392.4    264.3    0.46   154.4     203.3     146.0     135.8     106.8     106.8      91.6    0.000     0.000     0.000     0.000     0.000    0.46     0.00    0.00      0   -9.90   -9.00       36.8       33.8       32.9       32.4       32.2       32.1       32.1       32.1       32.1       32.0       32.0       32.0        0.0        0.0        0.0        0.0        0.0        0.0        0.0        0.0        0.0        0.0        0.0        0.0      8.5       3.7      23.9      28.4      33.0    387.43
     8     8  2009    38     2     393.4     8.5      0.0    0.0    6.0    2.5      1.0      0.0   -9.90      3.7      3.7    100      0.4      0.4   100      4.1     4.1     100     19.0    0.46      0      0      0      0     45     5.7     3.2      0     0.10      0.4      0.4      0.3   100    34.2     0.241    -9.9    0.000      19        0.00     393.4    265.2    0.46   156.9     205.8     147.8     137.4     108.1     108.1      92.7    0.000     0.000     0.000     0.000     0.000    0.46     0.00    0.00      0   -9.90   -9.00       36.6       34.2       33.1       32.6       32.3       32.2       32.2       32.1       32.1       32.1       32.0       32.0        0.0        0.0        0.0        0.0        0.0        0.0        0.0        0.0        0.0        0.0        0.0        0.0      8.5       3.7      24.0      28.5      33.0    387.43
     9     8  2009    39     2     391.8     4.2      0.0    0.0    3.6    0.6      1.2      0.0   -9.90      3.5      3.5    100      0.4      0.4   100      3.9     3.9     100     19.0    0.47      0      0      0      0     45     6.4     3.5      0     0.11      0.4      0.4      0.3   100    34.2     0.268    -9.9    0.000      19        0.00     391.8    263.5    0.47   156.7     208.2     149.6     138.8     109.3     109.3      93.8    0.000     0.000     0.000     0.000     0.000    0.47     0.00    0.00      0   -9.90   -9.00       34.2       34.3       33.1       32.7       32.5       32.3       32.2       32.2       32.1       32.1       32.1       32.0        0.0        0.0        0.0        0.0        0.0        0.0        0.0        0.0        0.0        0.0        0.0        0.0      4.2       3.6      24.0      28.3      32.5    387.43
    10     8  2009    40     2     387.0     0.0      0.0    0.0    0.0    0.0      1.5      0.0   -9.90      3.4      2.9     86      0.4      0.4   100      3.8     3.4      88     20.0    0.47      0      0      0      0     45     7.2     4.0      0     0.12      0.4      0.4      0.3   100    34.1     0.299    -9.9    0.000      19        0.00     387.0    258.5    0.47   153.3     210.7     151.4     140.3     110.4     110.4      94.9    0.000     0.000     0.000     0.000     0.000    0.47     0.00    0.00      0   -9.90   -9.00       29.8       33.3       33.2       32.8       32.5       32.4       32.3       32.2       32.2       32.1       32.1       32.1        0.0        0.0        0.0        0.0        0.0        0.0        0.0        0.0        0.0        0.0        0.0        0.0      0.0       3.5      26.0      29.9      33.8    387.43
    11     8  2009    41     2     389.6    11.8      0.0    0.0    8.7    3.1      1.7      0.0   -9.90      3.8      3.8    100      0.6      0.6   100      4.4     4.4     100     18.5    0.48      0      0      0      0     45     8.1     4.4      0     0.14      0.6      0.6      0.4   100    34.1     0.333    -9.9    0.000      19        0.00     389.6    261.1    0.48   157.8     213.1     153.1     143.0     112.4     112.4      96.0    0.000     0.000     0.000     0.000     0.000    0.48     0.00    0.00      0   -9.90   -9.00       34.1       32.7       32.6       32.4       32.4       32.3       32.3       32.2       32.2       32.1       32.1       32.1        0.0        0.0        0.0        0.0        0.0        0.0        0.0        0.0        0.0        0.0        0.0        0.0     11.8       4.0      23.0      28.3      33.5    387.43
    12     8  2009    42     2     393.0    17.8      0.0    0.0    9.1    8.7      1.6      0.0   -9.90      3.6      3.6    100      0.6      0.6   100      4.1     4.1     100     19.1    0.49      0      0      0      0     45     9.0     5.0      0     0.15      0.6      0.6      0.4   100    34.1     0.371    -9.9    0.000      19        0.00     393.0    264.6    0.49   163.3     215.5     154.8     144.1     113.4     113.4      97.1    0.000     0.000     0.000     0.000     0.000    0.49     0.00    0.00      0   -9.90   -9.00       38.1       32.9       32.4       32.3       32.3       32.2       32.2       32.2       32.1       32.1       32.1       32.1        0.0        0.0        0.0        0.0        0.0        0.0        0.0        0.0        0.0        0.0        0.0        0.0     17.8       3.8      24.2      28.9      33.6    387.43
    13     8  2009    43     2     394.5    11.8      0.0    0.0    7.4    4.4      1.3      0.0   -9.90      3.9      3.9    100      0.7      0.7   100      4.6     4.6     100     17.8    0.49      0      0      0      0     45    10.1     5.5      0     0.17      0.7      0.7      0.5   100    34.1     0.413    -9.9    0.000      20        0.00     394.5    266.2    0.49   166.8     217.9     156.6     146.6     115.2     115.2      98.2    0.000     0.000     0.000     0.000     0.000    0.49     0.00    0.00      0   -9.90   -9.00       38.1       34.0       33.0       32.4       32.2       32.2       32.1       32.1       32.1       32.1       32.1       32.1        0.0        0.0        0.0        0.0        0.0        0.0        0.0        0.0        0.0        0.0        0.0        0.0     11.8       4.2      21.5      27.1      32.8    387.43
    14     8  2009    44     2     389.5     0.0      0.0    0.0    0.0    0.0      1.2      0.0   -9.90      3.1      3.1    100      0.6      0.6   100      3.7     3.7     100     20.1    0.50      0      0      0      0     45    11.0     6.0      0     0.19      0.6      0.6      0.5   100    34.1     0.459    -9.9    0.000      20        0.00     389.5    261.2    0.50   163.4     220.3     158.3     146.5     115.4     115.4      99.2    0.000     0.000     0.000     0.000     0.000    0.50     0.00    0.00      0   -9.90   -9.00       31.6       34.6       33.3       32.7       32.4       32.3       32.2       32.1       32.1       32.1       32.1       32.0        0.0        0.0        0.0        0.0        0.0        0.0        0.0        0.0        0.0        0.0        0.0        0.0      0.0       3.4      26.3      29.7      33.1    387.43
    15     8  2009    45     2     389.0     6.8      0.0    0.0    5.2    1.6      1.4      0.0   -9.90      3.6      3.6    100      0.8      0.8   100      4.4     4.4     100     17.8    0.50      0      0      0      0     45    11.8     6.5      0     0.20      0.8      0.8      0.6   100    34.1     0.507    -9.9    0.000      21        0.00     389.0    260.5    0.50   164.3     222.7     160.0     149.4     117.4     117.4     100.3    0.000     0.000     0.000     0.000     0.000    0.50     0.00    0.00      0   -9.90   -9.00       32.5       33.4       32.7       32.7       32.5       32.3       32.3       32.2       32.1       32.1       32.1       32.1        0.0        0.0        0.0        0.0        0.0        0.0        0.0        0.0        0.0        0.0        0.0        0.0      6.8       4.0      21.6      26.8      32.0    387.43
    16     8  2009    46     2     382.9     0.0      0.0    0.0    0.0    0.0      1.5      0.0   -9.90      3.9      3.6     93      0.9      0.9   100      4.8     4.5      94     16.9    0.51      0      0      0      0     45    12.6     6.9      0     0.21      0.9      0.9      0.7   100    34.0     0.559    -9.9    0.000      21        0.00     382.9    254.4    0.51   159.9     225.1     161.7     151.9     119.2     119.2     101.4    0.000     0.000     0.000     0.000     0.000    0.51     0.00    0.00      0   -9.90   -9.00       27.7       32.8       32.5       32.4       32.4       32.3       32.2       32.2       32.2       32.1       32.1       32.1        0.0        0.0        0.0        0.0        0.0        0.0        0.0        0.0        0.0        0.0        0.0        0.0      0.0       4.4      19.8      26.3      32.8    387.43
    17     8  2009    47     2     383.8     7.5      0.0    0.0    6.7    0.8      1.4      0.0   -9.90      3.5      3.5    100      0.9      0.9   100      4.4     4.4     100     19.0    0.51      0      0      0      0     45    13.2     7.2      0     0.22      0.9      0.9      0.6   100    34.0     0.612    -9.9    0.000      22        0.00     383.8    255.5    0.51   162.9     227.4     163.4     152.6     119.9     119.9     102.4    0.000     0.000     0.000     0.000     0.000    0.51     0.00    0.00      0   -9.90   -9.00       30.0       32.4       32.2       32.2       32.2       32.2       32.2       32.1       32.1       32.1       32.1       32.1        0.0        0.0        0.0        0.0        0.0        0.0        0.0        0.0        0.0        0.0        0.0        0.0      7.5       4.0      24.0      28.8      33.6    387.43
    18     8  2009    48     2     384.4     7.5      0.0    0.0    6.3    1.2      1.1      0.0   -9.90      3.6      3.6    100      1.0      1.0   100      4.6     4.6     100     18.9    0.52      0      0      0      0     45    13.7     7.5      0     0.23      1.0      1.0      0.7   100    34.0     0.668    -9.9    0.000      22        0.00     384.4    256.3    0.52   165.7     229.8     165.1     154.6     121.4     121.4     103.5    0.000     0.000     0.000     0.000     0.000    0.52     0.00    0.00      0   -9.90   -9.00       31.7       32.2       32.1       32.1       32.1       32.1       32.1       32.1       32.0       32.0       32.0       32.0        0.0        0.0        0.0        0.0        0.0        0.0        0.0        0.0        0.0        0.0        0.0        0.0      7.5       4.2      23.9      29.1      34.3    387.43
    19     8  2009    49     2     385.0     7.5      0.0    0.0    5.5    2.0      0.7      0.0   -9.90      3.3      3.3    100      0.9      0.9   100      4.2     4.2     100     17.9    0.52      0      0      0      0     45    14.2     7.8      0     0.23      0.9      0.9      0.7   100    33.9     0.725    -9.9    0.000      23        0.00     385.0    257.0    0.52   168.3     232.1     166.7     155.5     122.2     122.2     104.5    0.000     0.000     0.000     0.000     0.000    0.52     0.00    0.00      0   -9.90   -9.00       33.0       32.1       32.0       32.0       32.0       32.0       32.0       32.0       32.0       32.0       32.0       32.0        0.0        0.0        0.0        0.0        0.0        0.0        0.0        0.0        0.0        0.0        0.0        0.0      7.5       3.9      21.8      26.7      31.6    387.43
    20     8  2009    50     2     380.4     0.0      0.0    0.0    0.0    0.0      0.5      0.0   -9.90      3.2      3.2     98      0.9      0.9   100      4.1     4.1      99     20.3    0.53      0      0      0      0     45    14.6     8.0      0     0.24      0.9      0.9      0.7   100    33.9     0.783    -9.9    0.000      23        0.00     380.4    252.6    0.53   165.7     234.4     168.4     156.8     123.3     123.3     105.6    0.000     0.000     0.000     0.000     0.000    0.53     0.00    0.00      0   -9.90   -9.00       28.5       32.3       32.1       32.0       32.0       32.0       32.0       32.0       32.0       32.0       32.0       32.0        0.0        0.0        0.0        0.0        0.0        0.0        0.0        0.0        0.0        0.0        0.0        0.0      0.0       3.8      26.6      30.6      34.6    387.43
    21     8  2009    51     2     376.9     0.0      0.0    0.0    0.0    0.0      0.3      0.0   -9.90      3.4      2.3     67      1.0      1.0   100      4.3     3.2      75     19.8    0.53      0      0      0      0     45    14.9     8.2      0     0.25      1.0      1.0      0.7   100    33.8     0.842    -9.9    0.000      23        0.00     376.9    249.2    0.53   163.9     236.7     170.1     158.8     124.8     124.8     106.6    0.000     0.000     0.000     0.000     0.000    0.53     0.00    0.00      0   -9.90   -9.00       25.2       32.1       32.0       32.0       32.0       32.0       31.9       31.9       31.9       31.9       31.9       31.9        0.0        0.0        0.0        0.0        0.0        0.0        0.0        0.0        0.0        0.0        0.0        0.0      0.0       4.0      25.5      30.0      34.5    387.43
    22     8  2009    52     2     385.7    16.9      0.0    0.0   13.6    3.3      0.2      0.0   -9.90      3.5      3.5    100      1.0      1.0   100      4.6     4.6     100     18.0    0.54      0      0      0      0     45    15.2     8.4      0     0.25      1.0      1.0      0.7   100    33.8     0.902    -9.9    0.000      24        0.00     385.7    257.9    0.54   174.3     239.0     171.7     160.8     126.3     126.3     107.7    0.000     0.000     0.000     0.000     0.000    0.54     0.00    0.00      0   -9.90   -9.00       34.2       32.0       32.0       32.0       32.0       32.0       31.9       31.9       31.9       31.9       31.9       31.9        0.0        0.0        0.0        0.0        0.0        0.0        0.0        0.0        0.0        0.0        0.0        0.0     16.9       4.2      22.0      27.1      32.2    387.43
    23     8  2009    53     2     387.1     8.5      0.0    0.0    6.0    2.5      0.2      0.0   -9.90      3.3      3.3    100      1.0      1.0   100      4.3     4.3     100     18.2    0.54      0      0      0      0     45    15.4     8.5      0     0.25      1.0      1.0      0.7   100    33.7     0.963    -9.9    0.000      24        0.00     387.1    259.4    0.54   177.5     241.3     173.4     161.9     127.2     127.2     108.7    0.000     0.000     0.000     0.000     0.000    0.54     0.00    0.00      0   -9.90   -9.00       34.9       32.5       32.2       32.0       32.0       31.9       31.9       31.9       31.9       31.9       31.9       31.9        0.0        0.0        0.0        0.0        0.0        0.0        0.0        0.0        0.0        0.0        0.0        0.0      8.5       4.0      22.4      27.2      32.0    387.43
    24     8  2009    54     2     391.9    16.9      0.0    0.0    8.9    8.0      0.2      0.0   -9.90      3.0      3.0    100      0.9      0.9   100      3.9     3.9     100     19.4    0.55      0      0      0      0     45    15.7     8.6      0     0.26      0.9      0.9      0.7   100    33.6     1.025    -9.9    0.000      25        0.00     391.9    264.1    0.55   183.7     243.6     175.0     162.4     127.8     127.8     109.7    0.000     0.000     0.000     0.000     0.000    0.55     0.00    0.00      0   -9.90   -9.00       38.6       33.0       32.5       32.2       32.0       32.0       32.0       32.0       31.9       31.9       31.9       31.9        0.0        0.0        0.0        0.0        0.0        0.0        0.0        0.0        0.0        0.0        0.0        0.0     16.9       3.6      24.7      28.6      32.5    387.43
    25     8  2009    55     2     399.1    33.8      0.0    0.0   11.7   22.1      0.4      0.0   -9.90      3.1      3.1    100      1.0      1.0   100      4.0     4.0     100     18.8    0.55      0      0      0      0     45    15.8     8.7      0     0.26      1.0      1.0      0.7   100    33.5     1.087    -9.9    0.000      25        0.00     399.1    271.3    0.55   192.3     245.8     176.6     164.2     129.2     129.2     110.7    0.000     0.000     0.000     0.000     0.000    0.55     0.00    0.00      0   -9.90   -9.00       40.4       37.0       33.1       32.4       32.2       32.1       32.0       32.0       32.0       32.0       32.0       32.0        0.0        0.0        0.0        0.0        0.0        0.0        0.0        0.0        0.0        0.0        0.0        0.0     33.8       3.7      23.5      27.6      31.8    387.43
    26     8  2009    56     2     394.5     0.0      0.0    0.0    0.0    0.0      0.9      0.0   -9.90      2.9      2.9    100      0.9      0.9   100      3.8     3.8     100     19.4    0.56      0      0      0      0     45    16.0     8.8      0     0.26      0.9      0.9      0.7   100    33.4     1.150    -9.9    0.000      25        0.00     394.5    266.3    0.56   188.6     248.1     178.2     165.2     130.0     130.0     111.7    0.000     0.000     0.000     0.000     0.000    0.56     0.00    0.00      0   -9.90   -9.00       32.8       36.6       34.6       33.1       32.6       32.3       32.2       32.1       32.1       32.1       32.0       32.0        0.0        0.0        0.0        0.0        0.0        0.0        0.0        0.0        0.0        0.0        0.0        0.0      0.0       3.5      24.8      28.4      32.0    387.43
    27     8  2009    57     2     395.6    11.0      0.0    0.0    7.1    3.9      1.6      0.0   -9.90      3.3      3.3    100      1.1      1.1   100      4.3     4.3     100     20.4    0.56      0      0      0      0     45    16.1     8.9      0     0.26      1.1      1.1      0.8   100    33.3     1.212    -9.9    0.000      26        0.00     395.6    266.9    0.56   190.3     250.3     179.8     167.9     132.0     132.0     112.8    0.000     0.000     0.000     0.000     0.000    0.56     0.00    0.00      0   -9.90   -9.00       35.1       34.5       33.5       33.4       32.9       32.6       32.5       32.3       32.2       32.2       32.1       32.1        0.0        0.0        0.0        0.0        0.0        0.0        0.0        0.0        0.0        0.0        0.0        0.0     11.0       4.0      26.9      31.1      35.4    387.43
    28     8  2009    58     2     399.7    27.6      0.0    0.0   10.9   16.7      2.5      0.0   -9.90      3.2      3.2    100      1.0      1.0   100      4.2     4.2     100     18.6    0.57      0      0      0      0     45    16.2     8.9      0     0.27      1.0      1.0      0.7   100    33.2     1.275    -9.9    0.000      26        0.00     399.7    270.6    0.57   195.4     252.5     181.4     169.2     133.0     133.0     113.8    0.000     0.000     0.000     0.000     0.000    0.57     0.00    0.00      0   -9.90   -9.00       40.2       33.7       33.3       32.9       32.8       32.7       32.5       32.4       32.4       32.3       32.3       32.2        0.0        0.0        0.0        0.0        0.0        0.0        0.0        0.0        0.0        0.0        0.0        0.0     27.6       3.9      23.3      27.6      32.0    387.43
    29     8  2009    59     2     393.0     0.0      0.0    0.0    0.0    0.0      2.7      0.0   -9.90      3.0      3.0    100      1.0      1.0   100      4.0     4.0     100     19.8    0.57      0      0      0      0     45    16.3     9.0      0     0.27      1.0      1.0      0.7   100    33.1     1.338    -9.9    0.000      26        0.00     393.0    263.8    0.57   190.4     254.8     183.0     170.1     133.9     133.9     114.8    0.000     0.000     0.000     0.000     0.000    0.57     0.00    0.00      0   -9.90   -9.00       32.4       35.0       33.5       32.9       32.7       32.5       32.5       32.4       32.3       32.3       32.3       32.2        0.0        0.0        0.0        0.0        0.0        0.0        0.0        0.0        0.0        0.0        0.0        0.0      0.0       3.7      25.5      29.4      33.2    387.43
    30     8  2009    60     2     385.7     0.0      0.0    0.0    0.0    0.0      2.6      0.0   -9.90      3.5      3.5    100      1.2      1.2   100      4.7     4.7     100     19.8    0.58      0      0      0      0     45    16.4     9.0      0     0.27      1.2      1.2      0.8   100    33.0     1.401    -9.9    0.000      26        0.00     385.7    256.7    0.58   185.1     257.0     184.6     173.2     136.0     136.0     115.8    0.000     0.000     0.000     0.000     0.000    0.58     0.00    0.00      0   -9.90   -9.00       27.5       33.6       32.9       32.8       32.6       32.5       32.4       32.3       32.3       32.3       32.2       32.2        0.0        0.0        0.0        0.0        0.0        0.0        0.0        0.0        0.0        0.0        0.0        0.0      0.0       4.3      25.5      30.1      34.8    387.43
    31     8  2009    61     2     390.9    16.5      0.0    0.0   12.1    4.4      2.3      0.0   -9.90      3.5      3.5    100      1.2      1.2   100      4.7     4.7     100     17.9    0.58      0      0      0      0     45    16.4     9.0      0     0.27      1.2      1.2      0.8   100    32.9     1.464    -9.9    0.000      26        0.00     390.9    262.1    0.58   192.2     259.2     186.2     174.7     137.2     137.2     116.7    0.000     0.000     0.000     0.000     0.000    0.58     0.00    0.00      0   -9.90   -9.00       34.9       32.9       32.5       32.4       32.4       32.4       32.3       32.3       32.2       32.2       32.2       32.2        0.0        0.0        0.0        0.0        0.0        0.0        0.0        0.0        0.0        0.0        0.0        0.0     16.5       4.3      21.7      26.9      32.1    387.43
     1     9  2009    62     2     384.7     0.0      0.0    0.0    0.0    0.0      1.8      0.0   -9.90      3.3      3.3    100      1.1      1.1   100      4.3     4.3     100     19.5    0.59      0      0      0      0     45    16.5     9.1      0     0.27      1.1      1.1      0.8   100    32.8     1.527    -9.9    0.000      27        0.00     384.7    256.2    0.59   188.1     261.4     187.8     175.3     137.8     137.8     117.7    0.000     0.000     0.000     0.000     0.000    0.59     0.00    0.00      0   -9.90   -9.00       29.3       33.2       32.6       32.3       32.2       32.2       32.2       32.2       32.2       32.1       32.1       32.1        0.0        0.0        0.0        0.0        0.0        0.0        0.0        0.0        0.0        0.0        0.0        0.0      0.0       4.0      25.0      29.3      33.5    387.43
     2     9  2009    63     2     378.3     0.0      0.0    0.0    0.0    0.0      1.4      0.0   -9.90      3.8      3.7     99      1.2      1.2   100      5.0     5.0      99     18.5    0.59      0      0      0      0     45    16.5     9.1      0     0.27      1.2      1.2      0.9   100    32.6     1.589    -9.9    0.000      27        0.00     378.3    250.0    0.59   183.8     263.6     189.4     178.4     140.0     140.0     118.7    0.000     0.000     0.000     0.000     0.000    0.59     0.00    0.00      0   -9.90   -9.00       24.3       32.6       32.3       32.3       32.2       32.1       32.1       32.1       32.1       32.1       32.1       32.1        0.0        0.0        0.0        0.0        0.0        0.0        0.0        0.0        0.0        0.0        0.0        0.0      0.0       4.6      23.0      28.5      34.0    387.43
     3     9  2009    64     2     385.1    14.3      0.0    0.0   12.2    2.1      1.1      0.0   -9.90      3.3      3.3    100      1.0      1.0   100      4.3     4.3     100     18.0    0.60     -9      0      0      0     45    16.0     8.8      0     0.25      1.0      1.0      0.7   100    32.4     1.648    -9.9    0.000      27        0.00     385.1    257.0    0.60   192.4     265.7     190.9     178.3     140.1     140.1     119.7    0.000     0.000     0.000     0.000     0.000    0.60     0.00    0.00      0   -9.90   -9.00       32.1       32.3       32.1       32.1       32.1       32.1       32.1       32.1       32.0       32.0       32.0       32.0        0.0        0.0        0.0        0.0        0.0        0.0        0.0        0.0        0.0        0.0        0.0        0.0     14.3       4.0      22.0      26.5      31.0    387.43
     4     9  2009    65     2     379.9     0.0      0.0    0.0    0.0    0.0      0.8      0.0   -9.90      3.4      3.4    100      1.0      1.0   100      4.4     4.4     100     19.8    0.60      0      0      0      0     45    16.1     8.8      0     0.26      1.0      1.0      0.7   100    32.3     1.707    -9.9    0.000      27        0.00     379.9    252.0    0.60   189.0     267.9     192.5     180.0     141.4     141.4     120.7    0.000     0.000     0.000     0.000     0.000    0.60     0.00    0.00      0   -9.90   -9.00       27.6       32.1       32.1       32.0       32.0       32.0       32.0       32.0       32.0       32.0       32.0       32.0        0.0        0.0        0.0        0.0        0.0        0.0        0.0        0.0        0.0        0.0        0.0        0.0      0.0       4.1      25.5      29.8      34.0    387.43
     5     9  2009    66     2     381.6     7.2      0.0    0.0    6.5    0.7      0.5      0.0   -9.90      3.2      3.2    100      1.0      1.0   100      4.2     4.2     100     18.4    0.61      0      0      0      0     45    16.1     8.9      0     0.26      1.0      1.0      0.7   100    32.1     1.765    -9.9    0.000      27        0.00     381.6    253.8    0.61   192.5     270.1     194.0     180.9     142.3     142.3     121.7    0.000     0.000     0.000     0.000     0.000    0.61     0.00    0.00      0   -9.90   -9.00       29.9       32.0       32.0       32.0       32.0       32.0       32.0       32.0       32.0       32.0       32.0       32.0        0.0        0.0        0.0        0.0        0.0        0.0        0.0        0.0        0.0        0.0        0.0        0.0      7.2       3.9      22.7      26.9      31.1    387.43
     6     9  2009    67     3     391.8    28.5      0.0    0.0   14.3   14.2      0.4      0.0   -9.90      2.9      2.9    100      0.9      0.9   100      3.8     3.8     100     19.0    0.61      0      0      0      0     45    16.2     8.9      0     0.26      0.9      0.9      0.6   100    32.0     1.824    -9.9    0.000      27        0.00     391.8    264.1    0.61   204.4     272.2     195.6     181.3     142.7     142.7     122.6    0.000     0.000     0.000     0.000     0.000    0.61     0.00    0.00      0   -9.90   -9.00       40.4       32.0       32.0       31.9       31.9       31.9       31.9       31.9       31.9       31.9       31.9       31.9        0.0        0.0        0.0        0.0        0.0        0.0        0.0        0.0        0.0        0.0        0.0        0.0     28.5       3.5      24.0      27.4      30.7    387.43
     7     9  2009    68     3     391.6     5.7      0.0    0.0    4.6    1.1      0.3      0.0   -9.90      3.4      3.4    100      1.1      1.1   100      4.5     4.5     100     19.4    0.62      0      0      0      0     45    16.2     8.9      0     0.26      1.1      1.1      0.8   100    31.8     1.883    -9.9    0.000      27        0.00     391.6    263.8    0.62   205.6     274.4     197.1     184.6     145.0     145.0     123.6    0.000     0.000     0.000     0.000     0.000    0.62     0.00    0.00      0   -9.90   -9.00       36.6       34.1       32.9       32.2       32.1       32.0       32.0       32.0       31.9       31.9       31.9       31.9        0.0        0.0        0.0        0.0        0.0        0.0        0.0        0.0        0.0        0.0        0.0        0.0      5.7       4.2      24.8      29.3      33.8    387.43
     8     9  2009    69     3     387.6     0.0      0.0    0.0    0.0    0.0      0.5      0.0   -9.90      2.8      2.7     95      0.9      0.9   100      3.7     3.5      97     20.0    0.62      0      0      0      0     45    16.2     8.9      0     0.26      0.9      0.9      0.6   100    31.7     1.941    -9.9    0.000      27        0.00     387.6    259.6    0.62   202.8     276.5     198.7     183.8     144.8     144.8     124.6    0.000     0.000     0.000     0.000     0.000    0.62     0.00    0.00      0   -9.90   -9.00       31.0       34.3       33.1       32.6       32.3       32.2       32.1       32.0       32.0       32.0       32.0       32.0        0.0        0.0        0.0        0.0        0.0        0.0        0.0        0.0        0.0        0.0        0.0        0.0      0.0       3.4      26.0      29.0      32.0    387.43
     9     9  2009    70     3     393.0    17.1      0.0    0.0    9.7    7.4      0.9      0.0   -9.90      2.5      2.5    100      0.8      0.8   100      3.3     3.3     100     18.9    0.63      0      0      0      0     45    16.2     8.9      0     0.26      0.8      0.8      0.6   100    31.5     1.999     1.4    0.028      28        0.01     393.0    264.8    0.63   209.4     278.7     200.2     184.4     145.4     145.4     125.5    0.000     0.000     0.000     0.000     0.000    0.63     0.00    0.00      0   -9.90   -9.00       37.3       33.2       32.6       32.6       32.4       32.3       32.2       32.1       32.1       32.1       32.0       32.0        0.0        0.0        0.0        0.0        0.0        0.0        0.0        0.0        0.0        0.0        0.0        0.0     17.1       3.1      24.4      26.9      29.4    387.43
    10     9  2009    71     3     396.3    17.1      0.0    0.0    8.9    8.2      1.3      0.0   -9.90      3.4      3.4    100      1.1      1.1   100      4.4     4.4     100     19.3    0.63      0      0      0      0     45    16.2     8.9      0     0.26      1.1      1.1      0.8   100    31.3     2.057     1.6    0.033      28        0.01     396.3    267.9    0.63   213.9     280.8     201.7     188.6     148.2     148.2     126.5    0.000     0.000     0.000     0.000     0.000    0.63     0.00    0.00      0   -9.90   -9.00       39.4       34.0       33.0       32.5       32.4       32.3       32.2       32.2       32.1       32.1       32.1       32.1        0.0        0.0        0.0        0.0        0.0        0.0        0.0        0.0        0.0        0.0        0.0        0.0     17.1       4.1      24.5      28.6      32.8    387.43
    11     9  2009    72     3     398.4    13.4      0.0    0.0    7.9    5.5      1.4      0.0   -9.90      3.3      3.3    100      1.0      1.0   100      4.3     4.3     100     20.0    0.64      0      0      0      0     45    16.2     8.9      0     0.26      1.0      1.0      0.7   100    31.2     2.114     1.8    0.038      28        0.01     398.4    270.0    0.64   217.5     282.9     203.3     189.8     149.2     149.2     127.4    0.000     0.000     0.000     0.000     0.000    0.64     0.00    0.00      0   -9.90   -9.00       39.6       35.0       33.5       32.7       32.4       32.3       32.2       32.2       32.1       32.1       32.1       32.1        0.0        0.0        0.0        0.0        0.0        0.0        0.0        0.0        0.0        0.0        0.0        0.0     13.4       4.0      26.0      29.8      33.5    387.43
    12     9  2009    73     3     392.8     0.0      0.0    0.0    0.0    0.0      1.7      0.0   -9.90      3.1      3.1    100      0.9      0.9   100      4.0     4.0     100     19.8    0.64     -9      0      0      0     45    16.0     8.8      0     0.25      0.9      0.9      0.7   100    31.0     2.170     2.0    0.044      28        0.02     392.8    264.2    0.64   213.1     285.0     204.8     190.3     149.8     149.8     128.4    0.000     0.000     0.000     0.000     0.000    0.64     0.00    0.00      0   -9.90   -9.00       32.2       35.5       33.8       33.0       32.7       32.5       32.3       32.3       32.2       32.2       32.1       32.1        0.0        0.0        0.0        0.0        0.0        0.0        0.0        0.0        0.0        0.0        0.0        0.0      0.0       3.7      25.6      29.0      32.4    387.43
    13     9  2009    74     3     386.4     0.0      0.0    0.0    0.0    0.0      2.0      0.0   -9.90      3.5      3.3     95      1.1      1.1   100      4.5     4.4      96     19.8    0.65     -9      0      0      0     45    16.0     8.8      0     0.25      1.1      1.1      0.8   100    30.8     2.225     2.3    0.050      28        0.02     386.4    257.6    0.65   208.0     287.1     206.3     193.2     151.8     151.8     129.3    0.000     0.000     0.000     0.000     0.000    0.65     0.00    0.00      0   -9.90   -9.00       27.7       33.9       33.0       33.0       32.7       32.5       32.4       32.3       32.3       32.2       32.2       32.1        0.0        0.0        0.0        0.0        0.0        0.0        0.0        0.0        0.0        0.0        0.0        0.0      0.0       4.2      25.5      29.6      33.7    387.43
    14     9  2009    75     3     390.8    13.4      0.0    0.0   10.5    2.9      2.2      0.0   -9.90      3.0      3.0    100      0.9      0.9   100      3.9     3.9     100     20.4    0.65     -9      0      0      0     45    16.0     8.8      0     0.25      0.9      0.9      0.6   100    30.6     2.280     2.5    0.058      28        0.02     390.8    262.0    0.65   213.9     289.2     207.8     192.9     151.8     151.8     130.3    0.000     0.000     0.000     0.000     0.000    0.65     0.00    0.00      0   -9.90   -9.00       34.3       33.0       32.5       32.5       32.5       32.4       32.4       32.3       32.3       32.2       32.2       32.2        0.0        0.0        0.0        0.0        0.0        0.0        0.0        0.0        0.0        0.0        0.0        0.0     13.4       3.6      26.7      29.8      32.8    387.43
    15     9  2009    76     3     383.9     0.0      0.0    0.0    0.0    0.0      2.0      0.0   -9.90      3.8      3.8    100      1.2      1.2   100      5.0     5.0     100     19.7    0.66     -9      0      0      0     45    16.0     8.8      0     0.25      1.2      1.2      0.8   100    30.4     2.335     2.8    0.066      28        0.02     383.9    255.2    0.66   208.9     291.3     209.3     197.2     154.7     154.7     131.2    0.000     0.000     0.000     0.000     0.000    0.66     0.00    0.00      0   -9.90   -9.00       28.3       33.1       32.5       32.3       32.3       32.3       32.2       32.2       32.2       32.2       32.1       32.1        0.0        0.0        0.0        0.0        0.0        0.0        0.0        0.0        0.0        0.0        0.0        0.0      0.0       4.6      25.4      30.2      35.0    387.43
    16     9  2009    77     3     389.9    18.2      0.0    0.0   12.4    5.8      1.5      0.0   -9.90      3.7      3.7    100      1.1      1.1   100      4.8     4.8     100     17.3    0.66     -9      0      0      0     45    16.1     8.8      0     0.25      1.1      1.1      0.8   100    30.2     2.390     3.2    0.076      28        0.02     389.9    261.6    0.66   216.9     293.4     210.8     198.3     155.6     155.6     132.2    0.000     0.000     0.000     0.000     0.000    0.66     0.00    0.00      0   -9.90   -9.00       35.9       32.6       32.3       32.3       32.2       32.2       32.1       32.1       32.1       32.1       32.1       32.1        0.0        0.0        0.0        0.0        0.0        0.0        0.0        0.0        0.0        0.0        0.0        0.0     18.2       4.5      20.6      25.9      31.2    387.43
    17     9  2009    78     3     384.9     0.0      0.0    0.0    0.0    0.0      1.1      0.0   -9.90      3.0      3.0    100      0.9      0.9   100      3.9     3.9     100     18.9    0.67     -9      0      0      0     45    16.1     8.8      0     0.25      0.9      0.9      0.7   100    30.0     2.444     3.5    0.086      28        0.03     384.9    256.8    0.67   213.6     295.5     212.3     197.0     155.1     155.1     133.1    0.000     0.000     0.000     0.000     0.000    0.67     0.00    0.00      0   -9.90   -9.00       30.3       33.3       32.6       32.2       32.1       32.1       32.1       32.1       32.1       32.0       32.0       32.0        0.0        0.0        0.0        0.0        0.0        0.0        0.0        0.0        0.0        0.0        0.0        0.0      0.0       3.6      23.8      27.0      30.1    387.43
    18     9  2009    79     3     388.2    12.1      0.0    0.0    8.4    3.7      0.9      0.0   -9.90      3.3      3.3    100      1.0      1.0   100      4.3     4.3     100     19.5    0.67     -9      0      0      0     45    16.1     8.9      0     0.25      1.0      1.0      0.7   100    29.8     2.498     3.9    0.098      28        0.03     388.2    260.1    0.67   218.4     297.5     213.8     199.6     156.9     156.9     134.0    0.000     0.000     0.000     0.000     0.000    0.67     0.00    0.00      0   -9.90   -9.00       34.4       32.7       32.3       32.3       32.2       32.1       32.1       32.1       32.0       32.0       32.0       32.0        0.0        0.0        0.0        0.0        0.0        0.0        0.0        0.0        0.0        0.0        0.0        0.0     12.1       4.0      25.0      28.9      32.8    387.43
    19     9  2009    80     4     383.5     0.0      0.0    0.0    0.0    0.0      0.8      0.0   -9.90      3.0      3.0    100      0.9      0.9   100      3.9     3.9     100     19.8    0.67     -9      0      0      0     45    16.1     8.9      0     0.25      0.9      0.9      0.7   100    29.6     2.552     4.4    0.112      28        0.04     383.5    255.4    0.67   215.3     299.6     215.3     199.8     157.2     157.2     135.0    0.000     0.000     0.000     0.000     0.000    0.67     0.00    0.00      0   -9.90   -9.00       29.4       33.0       32.4       32.2       32.2       32.1       32.1       32.0       32.0       32.0       32.0       32.0        0.0        0.0        0.0        0.0        0.0        0.0        0.0        0.0        0.0        0.0        0.0        0.0      0.0       3.6      25.5      28.4      31.3    387.43
    20     9  2009    81     4     378.2     0.0      0.0    0.0    0.0    0.0      0.8      0.0   -9.90      3.5      3.4     96      1.1      1.1   100      4.6     4.5      97     20.4    0.68     -9      0      0      0     45    16.1     8.9      0     0.25      1.1      1.1      0.8   100    29.4     2.605     4.9    0.127      28        0.04     378.2    250.1    0.68   211.5     301.7     216.7     203.3     159.6     159.6     135.9    0.000     0.000     0.000     0.000     0.000    0.68     0.00    0.00      0   -9.90   -9.00       24.9       32.5       32.2       32.2       32.1       32.1       32.1       32.0       32.0       32.0       32.0       32.0        0.0        0.0        0.0        0.0        0.0        0.0        0.0        0.0        0.0        0.0        0.0        0.0      0.0       4.3      26.7      30.6      34.6    387.43
    21     9  2009    82     4     374.5     0.0      0.0    0.0    0.0    0.0      0.7      0.0   -9.90      3.3      2.0     60      1.0      1.0   100      4.3     3.0      70     20.9    0.68     -9      0      0      0     45    16.1     8.9      0     0.25      1.0      1.0      0.7   100    29.2     2.658     5.4    0.144      28        0.04     374.5    246.5    0.68   209.3     303.7     218.2     203.7     160.2     160.2     136.8    0.000     0.000     0.000     0.000     0.000    0.68     0.00    0.00      0   -9.90   -9.00       21.9       32.2       32.1       32.1       32.1       32.1       32.0       32.0       32.0       32.0       32.0       32.0        0.0        0.0        0.0        0.0        0.0        0.0        0.0        0.0        0.0        0.0        0.0        0.0      0.0       4.0      27.8      31.1      34.5    387.43
    22     9  2009    83     4     376.6     6.5      0.0    0.0    6.4    0.1      0.6      0.0   -9.90      2.8      2.8    100      0.9      0.9   100      3.7     3.7     100     19.4    0.69     -9      0      0      0     45    16.1     8.9      0     0.26      0.9      0.9      0.6   100    29.0     2.711     6.0    0.162      28        0.05     376.6    248.7    0.69   213.1     305.8     219.7     203.3     160.1     160.1     137.7    0.000     0.000     0.000     0.000     0.000    0.69     0.00    0.00      0   -9.90   -9.00       24.6       32.1       32.0       32.0       32.0       32.0       32.0       32.0       32.0       32.0       32.0       32.0        0.0        0.0        0.0        0.0        0.0        0.0        0.0        0.0        0.0        0.0        0.0        0.0      6.5       3.4      24.9      27.6      30.3    387.43
    23     9  2009    84     4     371.5     0.0      0.0    0.0    0.0    0.0      0.4      0.0   -9.90      3.5      3.5    100      1.1      1.1   100      4.6     4.6     100     19.3    0.69     -9      0      0      0     45    16.2     8.9      0     0.26      1.1      1.1      0.8   100    28.7     2.763     6.6    0.182      28        0.06     371.5    243.7    0.69   209.6     307.8     221.1     207.4     162.9     162.9     138.6    0.000     0.000     0.000     0.000     0.000    0.69     0.00    0.00      0   -9.90   -9.00       20.0       32.0       32.0       32.0       32.0       32.0       32.0       32.0       32.0       32.0       31.9       31.9        0.0        0.0        0.0        0.0        0.0        0.0        0.0        0.0        0.0        0.0        0.0        0.0      0.0       4.3      24.6      28.8      33.0    387.43
    24     9  2009    85     4     368.1     0.0      0.0    0.0    0.0    0.0      0.3      0.0   -9.90      3.5      2.1     60      1.1      1.1   100      4.6     3.2      69     20.0    0.70     -9      0      0      0     45    16.2     8.9      0     0.26      1.1      1.1      0.8   100    28.5     2.815     7.2    0.203      28        0.06     368.1    240.3    0.70   207.7     309.8     222.6     208.8     164.0     164.0     139.6    0.000     0.000     0.000     0.000     0.000    0.70     0.00    0.00      0   -9.90   -9.00       17.9       30.9       31.9       31.9       31.9       31.9       31.9       31.9       31.9       31.9       31.9       31.9        0.0        0.0        0.0        0.0        0.0        0.0        0.0        0.0        0.0        0.0        0.0        0.0      0.0       4.3      26.0      29.9      33.8    387.43
    25     9  2009    86     4     381.0    19.5      0.0    0.0   17.0    2.5      0.1      0.0   -9.90      3.0      3.0    100      0.9      0.9   100      3.9     3.9     100     18.9    0.70     -9      0      0      0     45    16.2     8.9      0     0.26      0.9      0.9      0.7   100    28.2     2.866     7.8    0.225      28        0.07     381.0    253.4    0.70   222.2     311.9     224.1     208.0     163.7     163.7     140.5    0.000     0.000     0.000     0.000     0.000    0.70     0.00    0.00      0   -9.90   -9.00       31.0       30.9       31.9       31.9       31.9       31.9       31.9       31.9       31.9       31.9       31.9       31.9        0.0        0.0        0.0        0.0        0.0        0.0        0.0        0.0        0.0        0.0        0.0        0.0     19.5       3.6      23.8      26.9      30.0    387.43
    26     9  2009    87     4     376.2     0.0      0.0    0.0    0.0    0.0      0.1      0.0   -9.90      3.6      3.6    100      1.1      1.1   100      4.7     4.7     100     19.8    0.71     -9      0      0      0     45    16.2     8.9      0     0.26      1.1      1.1      0.8   100    28.0     2.917     8.5    0.247      28        0.07     376.2    248.6    0.71   218.9     313.9     225.5     211.8     166.3     166.3     141.4    0.000     0.000     0.000     0.000     0.000    0.71     0.00    0.00      0   -9.90   -9.00       26.3       30.9       31.9       31.9       31.9       31.9       31.9       31.9       31.9       31.9       31.9       31.9        0.0        0.0        0.0        0.0        0.0        0.0        0.0        0.0        0.0        0.0        0.0        0.0      0.0       4.4      25.5      29.8      34.1    387.43
    27     9  2009    88     4     370.6     0.0      0.0    0.0    0.0    0.0      0.0      0.0   -9.90      4.3      4.2     99      1.3      1.3   100      5.6     5.6      99     19.0    0.71     -9      0      0      0     45    16.2     8.9      0     0.26      1.3      1.3      0.9   100    27.8     2.968     9.1    0.270      28        0.08     370.6    243.0    0.71   214.8     315.9     227.0     215.7     168.9     168.9     142.3    0.000     0.000     0.000     0.000     0.000    0.71     0.00    0.00      0   -9.90   -9.00       20.7       30.9       31.9       31.9       31.9       31.9       31.9       31.9       31.9       31.9       31.9       31.9        0.0        0.0        0.0        0.0        0.0        0.0        0.0        0.0        0.0        0.0        0.0        0.0      0.0       5.2      24.0      29.8      35.5    387.43
    28     9  2009    89     4     366.9     0.0      0.0    0.0    0.0    0.0      0.0      0.0   -9.90      4.3      2.4     57      1.3      1.3   100      5.6     3.7      67     20.5    0.72     -9      0      0      0     45    16.1     8.9      0     0.25      1.3      1.3      0.9   100    27.5     3.018     9.7    0.293      28        0.08     366.9    239.2    0.72   212.4     317.9     228.4     217.1     170.0     170.0     143.2    0.000     0.000     0.000     0.000     0.000    0.72     0.00    0.00      0   -9.90   -9.00       18.3       29.5       31.9       31.9       31.9       31.9       31.9       31.9       31.9       31.9       31.9       31.9        0.0        0.0        0.0        0.0        0.0        0.0        0.0        0.0        0.0        0.0        0.0        0.0      0.0       5.2      27.0      32.2      37.4    387.43
    29     9  2009    90     4     364.3     0.0      0.0    0.0    0.0    0.0      0.0      0.0   -9.90      3.8      1.4     36      1.2      1.2   100      4.9     2.5      51     21.2    0.72     -9      0      0      0     45    16.1     8.8      0     0.25      1.2      1.2      0.8   100    27.2     3.067    10.3    0.317      28        0.09     364.3    236.7    0.72   211.4     319.9     229.9     216.6     169.9     169.9     144.1    0.000     0.000     0.000     0.000     0.000    0.72     0.00    0.00      0   -9.90   -9.00       16.9       28.4       31.9       31.9       31.9       31.9       31.9       31.9       31.9       31.9       31.9       31.9        0.0        0.0        0.0        0.0        0.0        0.0        0.0        0.0        0.0        0.0        0.0        0.0      0.0       4.6      28.4      32.5      36.6    387.43
[...]
    19    10  2019   110     4     339.2     0.0      0.0    0.0    0.0    0.0      0.0      0.0   -9.90      3.6      0.3      8      0.8      0.8   100      4.4     1.1      24     20.5    0.80     -9      0      0      0     45    14.1     7.8      0     0.19      0.8      0.8      0.6   100    23.9     3.821    22.8    0.871      26        0.30     339.2    211.6    0.80   211.6     355.2     255.2     239.0     187.7     187.7     160.0    0.000     0.000     0.000     0.000     0.000    0.80     0.00    0.00      0   -9.90   -9.00       14.6       19.3       19.9       30.2       31.9       31.9       31.9       31.9       31.9       31.9       31.9       31.9        0.0        0.0        0.0        0.0        0.0        0.0        0.0        0.0        0.0        0.0        0.0        0.0      0.0       4.2      27.0      30.6      34.2    410.21
    20    10  2019   111     4     338.1     0.0      0.0    0.0    0.0    0.0      0.0      0.0   -9.90      3.9      0.3      7      0.8      0.8   100      4.8     1.1      24     20.4    0.80     -9      0      0      0     45    14.0     7.7      0     0.18      0.8      0.8      0.6   100    23.6     3.851    23.4    0.902      25        0.31     338.1    210.5    0.80   210.5     355.2     255.2     240.4     188.6     188.6     160.0    0.000     0.000     0.000     0.000     0.000    0.80     0.00    0.00      0   -9.90   -9.00       14.3       19.3       19.9       29.4       31.9       31.9       31.9       31.9       31.9       31.9       31.9       31.9        0.0        0.0        0.0        0.0        0.0        0.0        0.0        0.0        0.0        0.0        0.0        0.0      0.0       4.6      26.7      30.8      34.9    410.21
    21    10  2019   112     4     337.0     0.0      0.0    0.0    0.0    0.0      0.0      0.0   -9.90      3.9      0.3      7      0.8      0.8   100      4.7     1.1      23     18.4    0.80     -9      0      0      0     45    13.8     7.6      0     0.18      0.8      0.8      0.6   100    23.4     3.881    24.0    0.933      25        0.32     337.0    209.4    0.80   209.4     355.2     255.2     240.4     188.6     188.6     160.0    0.000     0.000     0.000     0.000     0.000    0.80     0.00    0.00      0   -9.90   -9.00       14.0       19.3       19.9       28.6       31.9       31.9       31.9       31.9       31.9       31.9       31.9       31.9        0.0        0.0        0.0        0.0        0.0        0.0        0.0        0.0        0.0        0.0        0.0        0.0      0.0       4.6      22.7      29.1      35.6    410.21
    22    10  2019   113     4     335.7     0.0      0.0    0.0    0.0    0.0      0.0      0.0   -9.90      4.9      0.3      7      1.0      1.0   100      5.9     1.3      22     19.0    0.80     -9      0      0      0     45    13.6     7.5      0     0.17      1.0      1.0      0.7   100    23.2     3.909    24.7    0.964      25        0.33     335.7    208.1    0.80   208.1     355.2     255.2     244.4     191.1     191.1     160.0    0.000     0.000     0.000     0.000     0.000    0.80     0.00    0.00      0   -9.90   -9.00       13.7       19.3       19.9       27.6       31.9       31.9       31.9       31.9       31.9       31.9       31.9       31.9        0.0        0.0        0.0        0.0        0.0        0.0        0.0        0.0        0.0        0.0        0.0        0.0      0.0       5.7      24.0      30.1      36.2    410.21
    23    10  2019   114     4     334.6     0.0      0.0    0.0    0.0    0.0      0.0      0.0   -9.90      4.5      0.3      6      0.9      0.9   100      5.3     1.1      21     19.0    0.80     -9      0      0      0     45    13.4     7.3      0     0.17      0.9      0.9      0.6   100    23.0     3.937    25.3    0.995      25        0.34     334.6    207.0    0.80   207.0     355.2     255.2     242.6     190.0     190.0     160.0    0.000     0.000     0.000     0.000     0.000    0.80     0.00    0.00      0   -9.90   -9.00       13.4       19.3       19.9       26.7       31.9       31.9       31.9       31.9       31.9       31.9       31.9       31.9        0.0        0.0        0.0        0.0        0.0        0.0        0.0        0.0        0.0        0.0        0.0        0.0      0.0       5.2      24.0      29.5      35.0    410.21
    24    10  2019   115     4     333.6     0.0      0.0    0.0    0.0    0.0      0.0      0.0   -9.90      3.9      0.2      6      0.7      0.7   100      4.7     1.0      21     19.0    0.80     -9      0      0      0     45    13.1     7.2      0     0.16      0.7      0.7      0.5   100    22.8     3.963    25.9    1.027      25        0.35     333.6    206.0    0.80   206.0     355.2     255.2     240.4     188.6     188.6     160.0    0.000     0.000     0.000     0.000     0.000    0.80     0.00    0.00      0   -9.90   -9.00       13.2       19.3       19.9       26.0       31.9       31.9       31.9       31.9       31.9       31.9       31.9       31.9        0.0        0.0        0.0        0.0        0.0        0.0        0.0        0.0        0.0        0.0        0.0        0.0      0.0       4.6      24.0      29.1      34.2    410.21
    25    10  2019   116     4     332.8     0.0      0.0    0.0    0.0    0.0      0.0      0.0   -9.90      3.7      0.2      6      0.7      0.7   100      4.4     0.9      20     19.5    0.80     -9      0      0      0     45    12.8     7.0      0     0.15      0.7      0.7      0.5   100    22.6     3.988    26.5    1.058      25        0.36     332.8    205.2    0.80   205.2     355.2     255.2     239.4     188.0     188.0     160.0    0.000     0.000     0.000     0.000     0.000    0.80     0.00    0.00      0   -9.90   -9.00       13.0       19.3       19.9       25.4       31.9       31.9       31.9       31.9       31.9       31.9       31.9       31.9        0.0        0.0        0.0        0.0        0.0        0.0        0.0        0.0        0.0        0.0        0.0        0.0      0.0       4.3      25.0      29.2      33.4    410.21
    26    10  2019   117     4     331.9     0.0      0.0    0.0    0.0    0.0      0.0      0.0   -9.90      4.1      0.2      6      0.7      0.7   100      4.7     0.9      19     20.0    0.80     -9      0      0      0     45    12.4     6.8      0     0.14      0.7      0.7      0.5   100    22.4     4.011    27.2    1.089      25        0.37     331.9    204.3    0.80   204.3     355.2     255.2     240.8     188.9     188.9     160.0    0.000     0.000     0.000     0.000     0.000    0.80     0.00    0.00      0   -9.90   -9.00       12.8       19.3       19.9       24.7       31.9       31.9       31.9       31.9       31.9       31.9       31.9       31.9        0.0        0.0        0.0        0.0        0.0        0.0        0.0        0.0        0.0        0.0        0.0        0.0      0.0       4.7      26.0      30.4      34.8    410.21
    27    10  2019   118     4     331.0     0.0      0.0    0.0    0.0    0.0      0.0      0.0   -9.90      3.9      0.2      5      0.6      0.6   100      4.5     0.8      18     20.0    0.80     -9      0      0      0     45    12.0     6.6      0     0.14      0.6      0.6      0.4   100    22.2     4.033    27.8    1.120      25        0.38     331.0    203.4    0.80   203.4     355.2     255.2     240.1     188.4     188.4     160.0    0.000     0.000     0.000     0.000     0.000    0.80     0.00    0.00      0   -9.90   -9.00       12.5       19.3       19.9       24.1       31.9       31.9       31.9       31.9       31.9       31.9       31.9       31.9        0.0        0.0        0.0        0.0        0.0        0.0        0.0        0.0        0.0        0.0        0.0        0.0      0.0       4.5      26.0      30.2      34.4    410.21
    28    10  2019   119     4     330.3     0.0      0.0    0.0    0.0    0.0      0.0      0.0   -9.90      3.9      0.2      5      0.6      0.6   100      4.5     0.8      17     18.2    0.80     -9      0      0      0     45    11.6     6.4      0     0.13      0.6      0.6      0.4   100    22.0     4.052    28.4    1.151      25        0.38     330.3    202.7    0.80   202.7     355.2     255.2     240.1     188.4     188.4     160.0    0.000     0.000     0.000     0.000     0.000    0.80     0.00    0.00      0   -9.90   -9.00       12.3       19.3       19.9       23.5       31.9       31.9       31.9       31.9       31.9       31.9       31.9       31.9        0.0        0.0        0.0        0.0        0.0        0.0        0.0        0.0        0.0        0.0        0.0        0.0      0.0       4.5      22.4      28.8      35.1    410.21
    29    10  2019   120     4     329.3     0.0      0.0    0.0    0.0    0.0      0.0      0.0   -9.90      5.2      0.3      5      0.7      0.7   100      5.9     1.0      16     17.3    0.80     -9      0      0      0     45    11.1     6.1      0     0.12      0.7      0.7      0.5   100    21.9     4.071    29.0    1.181      25        0.39     329.3    201.7    0.80   201.7     355.2     255.2     245.5     191.7     191.7     160.0    0.000     0.000     0.000     0.000     0.000    0.80     0.00    0.00      0   -9.90   -9.00       12.1       19.3       19.9       22.8       31.9       31.9       31.9       31.9       31.9       31.9       31.9       31.9        0.0        0.0        0.0        0.0        0.0        0.0        0.0        0.0        0.0        0.0        0.0        0.0      0.0       6.0      20.5      28.1      35.7    410.21
    30    10  2019   121     4     328.6     0.0      0.0    0.0    0.0    0.0      0.0      0.0   -9.90      4.1      0.2      5      0.5      0.5   100      4.6     0.7      15     20.1    0.80     -9      0      0      0     45    10.5     5.8      0     0.10      0.5      0.5      0.4   100    21.7     4.087    29.6    1.211      25        0.40     328.6    201.0    0.80   201.0     355.2     255.2     240.8     188.9     188.9     160.0    0.000     0.000     0.000     0.000     0.000    0.80     0.00    0.00      0   -9.90   -9.00       11.9       19.3       19.9       22.3       31.9       31.9       31.9       31.9       31.9       31.9       31.9       31.9        0.0        0.0        0.0        0.0        0.0        0.0        0.0        0.0        0.0        0.0        0.0        0.0      0.0       4.7      26.2      30.9      35.5    410.21
    31    10  2019   122     4     327.9     0.0      0.0    0.0    0.0    0.0      0.0      0.0   -9.90      4.9      0.2      5      0.5      0.5   100      5.4     0.7      14     18.0    0.80     -9      0      0      0     45     9.8     5.4      0     0.09      0.5      0.5      0.4   100    21.6     4.101    30.3    1.241      25        0.41     327.9    200.3    0.80   200.3     355.2     255.2     244.0     190.8     190.8     160.0    0.000     0.000     0.000     0.000     0.000    0.80     0.00    0.00      0   -9.90   -9.00       11.6       19.3       19.9       21.8       31.9       31.9       31.9       31.9       31.9       31.9       31.9       31.9        0.0        0.0        0.0        0.0        0.0        0.0        0.0        0.0        0.0        0.0        0.0        0.0      0.0       5.6      22.0      28.6      35.2    410.21
     1    11  2019   123     4     327.2     0.0      0.0    0.0    0.0    0.0      0.0      0.0   -9.90      5.3      0.2      5      0.5      0.5   100      5.8     0.7      12     18.0    0.80     -9      0      0      0     45     9.0     5.0      0     0.08      0.5      0.5      0.3   100    21.5     4.113    30.9    1.270      25        0.42     327.2    199.6    0.80   199.6     355.2     255.2     245.5     191.7     191.7     160.0    0.000     0.000     0.000     0.000     0.000    0.80     0.00    0.00      0   -9.90   -9.00       11.4       19.3       19.9       21.4       31.9       31.9       31.9       31.9       31.9       31.9       31.9       31.9        0.0        0.0        0.0        0.0        0.0        0.0        0.0        0.0        0.0        0.0        0.0        0.0      0.0       6.0      22.0      29.1      36.2    410.21
     2    11  2019   124     4     326.6     0.0      0.0    0.0    0.0    0.0      0.0      0.0   -9.90      5.4      0.2      4      0.4      0.4   100      5.7     0.6      11     17.7    0.80     -9      0      0      0     45     8.1     4.5      0     0.06      0.4      0.4      0.3   100    21.4     4.123    31.5    1.299      25        0.43     326.6    199.0    0.80   199.0     355.2     255.2     245.5     191.7     191.7     160.0    0.000     0.000     0.000     0.000     0.000    0.80     0.00    0.00      0   -9.90   -9.00       11.2       19.3       19.9       21.0       31.9       31.9       31.9       31.9       31.9       31.9       31.9       31.9        0.0        0.0        0.0        0.0        0.0        0.0        0.0        0.0        0.0        0.0        0.0        0.0      0.0       6.0      21.4      29.0      36.6    410.21
     3    11  2019   125     4     326.0     0.0      0.0    0.0    0.0    0.0      0.0      0.0   -9.90      5.6      0.2      4      0.3      0.3   100      5.9     0.5       9     19.8    0.80     -9      0      0      0     45     7.1     3.9      0     0.05      0.3      0.3      0.2   100    21.3     4.130    32.1    1.327      25        0.44     326.0    198.4    0.80   198.4     355.2     255.2     246.2     192.2     192.2     160.0    0.000     0.000     0.000     0.000     0.000    0.80     0.00    0.00      0   -9.90   -9.00       10.9       19.3       19.9       20.7       31.9       31.9       31.9       31.9       31.9       31.9       31.9       31.9        0.0        0.0        0.0        0.0        0.0        0.0        0.0        0.0        0.0        0.0        0.0        0.0      0.0       6.2      25.6      31.1      36.6    410.21
     4    11  2019   126     4     325.6     0.0      0.0    0.0    0.0    0.0      0.0      0.0   -9.90      5.8      0.2      4      0.2      0.2   100      6.0     0.5       8     19.8    0.80     -9      0      0      0     45     5.9     3.3      0     0.03      0.2      0.2      0.2   100    21.3     4.136    32.8    1.355      25        0.45     325.6    198.0    0.80   198.0     355.2     255.2     246.5     192.4     192.4     160.0    0.000     0.000     0.000     0.000     0.000    0.80     0.00    0.00      0   -9.90   -9.00       10.7       19.3       19.9       20.5       31.9       31.9       31.9       31.9       31.9       31.9       31.9       31.9        0.0        0.0        0.0        0.0        0.0        0.0        0.0        0.0        0.0        0.0        0.0        0.0      0.0       6.3      25.5      31.8      38.1    410.21
     5    11  2019   127     4     325.3     0.0      0.0    0.0    0.0    0.0      0.0      0.0   -9.90      5.3      0.2      4      0.1      0.1   100      5.4     0.3       6     19.0    0.80     -9      0      0      0     45     4.6     2.5      0     0.02      0.1      0.1      0.1   100    21.2     4.139    33.0    1.366      25        0.45     325.3    197.7    0.80   197.7     355.2     255.2     244.0     190.8     190.8     160.0    0.000     0.000     0.000     0.000     0.000    0.80     0.00    0.00      0   -9.90   -9.00       10.5       19.3       19.9       20.3       31.9       31.9       31.9       31.9       31.9       31.9       31.9       31.9        0.0        0.0        0.0        0.0        0.0        0.0        0.0        0.0        0.0        0.0        0.0        0.0      0.0       5.6      24.0      30.0      36.0    410.21
     6    11  2019   128     4     325.0     0.0      0.0    0.0    0.0    0.0      0.0      0.0   -9.90      6.1      0.2      4      0.1      0.1   100      6.2     0.3       5     20.1    0.80     -9      0      0      0     45     3.1     1.7      0     0.01      0.1      0.1      0.0   100    21.2     4.140    33.0    1.366      25        0.45     325.0    197.4    0.80   197.4     355.2     255.2     246.5     192.4     192.4     160.0    0.000     0.000     0.000     0.000     0.000    0.80     0.00    0.00      0   -9.90   -9.00       10.2       19.3       19.9       20.3       31.9       31.9       31.9       31.9       31.9       31.9       31.9       31.9        0.0        0.0        0.0        0.0        0.0        0.0        0.0        0.0        0.0        0.0        0.0        0.0      0.0       6.3      26.2      31.4      36.6    410.21
     7    11  2019   129     4     324.7     0.0      0.0    0.0    0.0    0.0      0.0      0.0   -9.90      5.7      0.2      4      0.0      0.0   100      5.7     0.2       4     15.4    0.80     -9      0      0      0     45     1.4     0.7      0     0.00      0.0      0.0      0.0   100    21.2     4.140    33.0    1.366      25        0.45     324.7    197.1    0.80   197.1     355.2     255.2     244.4     191.1     191.1     160.0    0.000     0.000     0.000     0.000     0.000    0.80     0.00    0.00      0   -9.90   -9.00       10.0       19.3       19.9       20.3       31.9       31.9       31.9       31.9       31.9       31.9       31.9       31.9        0.0        0.0        0.0        0.0        0.0        0.0        0.0        0.0        0.0        0.0        0.0        0.0      0.0       5.7      16.8      26.7      36.6    410.21
     8    11  2019    -9     0     324.5     0.0      0.0    0.0    0.0    0.0      0.0      0.0   -9.90      6.4      0.2      4      0.0      0.0   100      6.4     0.2       4     18.0    0.80     -9     -9      0      0     -9     0.0     0.0      0    -9.00      0.0      0.0      0.0   100    21.2     4.140    33.0    1.366      25        0.45     324.5    196.9    0.80   196.9     355.2     255.2     246.9     192.6     192.6     160.0    0.000     0.000     0.000     0.000     0.000    0.80     0.00    0.00      0   -9.90   -9.00       10.0       19.1       19.9       20.3       31.9       31.9       31.9       31.9       31.9       31.9       31.9       31.9        0.0        0.0        0.0        0.0        0.0        0.0        0.0        0.0        0.0        0.0        0.0        0.0      0.0       6.4      22.0      29.5      37.0    410.21
     9    11  2019    -9     0     324.3     0.0      0.0    0.0    0.0    0.0      0.0      0.0   -9.90      6.1      0.2      4      0.0      0.0   100      6.1     0.2       4     18.7    0.80     -9     -9      0      0     -9     0.0     0.0      0    -9.00      0.0      0.0      0.0   100    21.2     4.140    33.0    1.366      25        0.45     324.3    196.7    0.80   196.7     355.2     255.2     246.9     191.9     192.6     160.0    0.000     0.000     0.000     0.000     0.000    0.80     0.00    0.00      0   -9.90   -9.00       10.0       18.9       19.9       20.3       31.9       31.9       31.9       31.9       31.9       31.9       31.9       31.9        0.0        0.0        0.0        0.0        0.0        0.0        0.0        0.0        0.0        0.0        0.0        0.0      0.0       6.1      23.4      29.9      36.4    410.21
    10    11  2019    -9     0     324.1     0.0      0.0    0.0    0.0    0.0      0.0      0.0   -9.90      5.8      0.2      3      0.0      0.0   100      5.8     0.2       3     18.0    0.80     -9     -9      0      0     -9     0.0     0.0      0    -9.00      0.0      0.0      0.0   100    21.2     4.140    33.0    1.366      25        0.45     324.1    196.5    0.80   196.5     355.2     255.2     246.9     191.3     192.6     160.0    0.000     0.000     0.000     0.000     0.000    0.80     0.00    0.00      0   -9.90   -9.00       10.0       18.7       19.9       20.3       31.9       31.9       31.9       31.9       31.9       31.9       31.9       31.9        0.0        0.0        0.0        0.0        0.0        0.0        0.0        0.0        0.0        0.0        0.0        0.0      0.0       5.8      22.0      28.9      35.8    410.21
