AquaCrop 6.0 (March 2017) - Output created on (date) : 14/07/2022   at (time) : 11:09:20

    RunNr     Day1   Month1    Year1     Rain      ETo       GD     CO2      Irri   Infilt   Runoff    Drain   Upflow        E     E/Ex       Tr      TrW   Tr/Trx    SaltIn   SaltOut    SaltUp  SaltProf     Cycle   SaltStr  FertStr  WeedStr  TempStr   ExpStr   StoStr  BioMass  Brelative   HI     Yield     WPet     DayN   MonthN    YearN
                                           mm       mm    °C.day    ppm        mm       mm       mm       mm       mm       mm        %       mm       mm        %    ton/ha    ton/ha    ton/ha    ton/ha      days       %        %        %        %        %        %    ton/ha        %       %    ton/ha    kg/m3
   Tot(1)        2        7     2009    415.5    582.3   2551.7   387.43      0.0    343.8     71.7     18.7      0.0    303.0       57     87.4     62.5      100     0.000     0.000     0.000     0.000      123        0       62       45        0        1        0     4.104       25     33.0    1.354     0.35       10       11     2009  NO_0°-30.PRM
   Tot(2)        2        7     2010    409.3    576.8   2505.5   389.90      0.0    335.0     74.3      8.1      0.0    293.0       56     87.8     62.8      100     0.000     0.000     0.000     0.000      123        0       62       45        0        3        0     4.105       25     33.0    1.355     0.36       10       11     2010  NO_0°-30.PRM
   Tot(3)        2        7     2011    295.1    623.4   2494.2   391.65      0.0    265.7     29.4      2.6      0.0    252.6       44     89.1     63.7       97     0.000     0.000     0.000     0.000      123        0       62       45        0        6        5     3.977       24     33.0    1.310     0.38       10       11     2011  NO_0°-30.PRM
   Tot(4)        2        7     2012    478.1    594.3   2518.9   393.85      0.0    374.8    103.3     35.0      0.0    309.8       57     90.6     64.8      100     0.000     0.000     0.000     0.000      123        0       62       45        0        1        0     4.112       25     33.0    1.357     0.34       10       11     2012  NO_0°-30.PRM
   Tot(5)        2        7     2013    344.7    579.6   2524.3   396.52      0.0    297.9     46.8     12.4      0.0    266.9       50     84.2     60.2      100     0.000     0.000     0.000     0.000      123        0       62       45        0        6        0     4.046       24     33.0    1.335     0.38       10       11     2013  NO_0°-30.PRM
   Tot(6)        2        7     2014    262.0    617.7   2517.4   398.65      0.0    248.5     13.5      0.0      0.0    231.0       41     89.9     64.3       99     0.000     0.000     0.000     0.000      123        0       62       45        0       12        2     4.053       24     33.0    1.338     0.42       10       11     2014  NO_0°-30.PRM
   Tot(7)        2        7     2015    421.6    611.1   2489.7   400.83      0.0    356.6     65.0      3.8      0.0    314.9       56     90.6     64.8      100     0.000     0.000     0.000     0.000      123        0       62       45        0        8        0     4.035       24     33.0    1.332     0.33       10       11     2015  NO_0°-30.PRM
   Tot(8)        2        7     2016    340.4    615.7   2471.9   404.21      0.0    308.0     32.4      3.2      0.0    275.5       49     91.8     65.7      100     0.000     0.000     0.000     0.000      123        0       62       45        0        3        0     4.135       25     33.0    1.365     0.37       10       11     2016  NO_0°-30.PRM
   Tot(9)        2        7     2017    332.8    626.1   2501.3   406.21      0.0    277.6     55.2     14.3      0.0    259.6       45     86.5     61.9       93     0.000     0.000     0.000     0.000      121        0       62       45        0        2        8     3.942       24     31.8    1.253     0.36       10       11     2017  NO_0°-30.PRM
  Tot(10)        2        7     2018    269.5    600.6   2512.4   408.21      0.0    237.1     32.4      1.1      0.0    224.0       41     86.9     62.1       99     0.000     0.000     0.000     0.000      123        0       62       45        0       12        3     4.051       24     33.0    1.336     0.43       10       11     2018  NO_0°-30.PRM
  Tot(11)        2        7     2019    282.2    604.4   2485.3   410.21      0.0    234.8     47.4      6.1      0.0    215.2       39     87.6     62.6       99     0.000     0.000     0.000     0.000      123        0       62       45        0       11        2     4.073       24     33.0    1.344     0.44       10       11     2019  NO_0°-30.PRM
