AquaCrop 6.0 (March 2017) - Output created on (date) : 14/07/2022   at (time) : 11:09:21

    RunNr     Day1   Month1    Year1     Rain      ETo       GD     CO2      Irri   Infilt   Runoff    Drain   Upflow        E     E/Ex       Tr      TrW   Tr/Trx    SaltIn   SaltOut    SaltUp  SaltProf     Cycle   SaltStr  FertStr  WeedStr  TempStr   ExpStr   StoStr  BioMass  Brelative   HI     Yield     WPet     DayN   MonthN    YearN
                                           mm       mm    °C.day    ppm        mm       mm       mm       mm       mm       mm        %       mm       mm        %    ton/ha    ton/ha    ton/ha    ton/ha      days       %        %        %        %        %        %    ton/ha        %       %    ton/ha    kg/m3
   Tot(1)        2        7     2009    296.9    582.5   2551.7   387.43      0.0    281.7     15.2      0.0      0.0    269.6       51     85.7     61.4       99     0.000     0.000     0.000     0.000      123        0       62       45        0        4        2     4.061       25     33.0    1.339     0.38       10       11     2009  NO_0°-50%.PRM
   Tot(2)        2        7     2010    292.5    576.5   2505.5   389.90      0.0    272.3     20.2      0.0      0.0    253.9       48     85.9     61.5      100     0.000     0.000     0.000     0.000      123        0       62       45        0        8        0     4.049       24     33.0    1.336     0.39       10       11     2010  NO_0°-50%.PRM
   Tot(3)        2        7     2011    210.9    623.5   2494.2   391.65      0.0    203.6      7.3      1.1      0.0    212.6       37     75.8     54.2       90     0.000     0.000     0.000     0.000      114        0       62       45        0       11       10     3.589       22     27.8    0.998     0.35       10       11     2011  NO_0°-50%.PRM
   Tot(4)        2        7     2012    341.9    594.4   2518.9   393.85      0.0    303.9     38.0      5.0      0.0    279.1       52     90.4     64.7      100     0.000     0.000     0.000     0.000      123        0       62       45        0        2        1     4.108       25     33.0    1.355     0.37       10       11     2012  NO_0°-50%.PRM
   Tot(5)        2        7     2013    246.4    579.8   2524.3   396.52      0.0    238.6      7.8      0.0      0.0    234.0       44     83.0     59.3       97     0.000     0.000     0.000     0.000      123        0       62       45        0       10        4     4.030       24     32.9    1.328     0.42       10       11     2013  NO_0°-50%.PRM
   Tot(6)        2        7     2014    187.2    617.8   2517.4   398.65      0.0    184.8      2.4      0.0      0.0    197.5       34     73.8     52.8       89     0.000     0.000     0.000     0.000      115        0       62       45        0       18       10     3.591       22     28.8    1.034     0.38       10       11     2014  NO_0°-50%.PRM
   Tot(7)        2        7     2015    300.8    610.9   2489.7   400.83      0.0    290.8     10.0      0.0      0.0    274.4       49     90.6     64.7       99     0.000     0.000     0.000     0.000      123        0       62       45        0       11        2     4.057       24     33.0    1.339     0.37       10       11     2015  NO_0°-50%.PRM
   Tot(8)        2        7     2016    243.0    615.6   2471.9   404.21      0.0    237.0      6.0      0.0      0.0    236.0       42     84.4     60.4       93     0.000     0.000     0.000     0.000      122        0       62       45        0        7        8     3.951       24     32.8    1.297     0.41       10       11     2016  NO_0°-50%.PRM
   Tot(9)        2        7     2017    237.6    626.5   2501.3   406.21      0.0    224.7     12.9      0.2      0.0    231.9       40     77.3     55.2       90     0.000     0.000     0.000     0.000      114        0       62       45        0        4       10     3.691       22     27.8    1.025     0.33       10       11     2017  NO_0°-50%.PRM
  Tot(10)        2        7     2018    192.6    600.7   2512.4   408.21      0.0    186.2      6.4      0.0      0.0    193.7       35     76.3     54.6       92     0.000     0.000     0.000     0.000      117        0       62       45        0       17        9     3.710       22     29.8    1.105     0.41       10       11     2018  NO_0°-50%.PRM
  Tot(11)        2        7     2019    201.9    604.5   2485.3   410.21      0.0    190.3     11.6      0.0      0.0    187.8       34     83.6     59.8       95     0.000     0.000     0.000     0.000      123        0       62       45        0       13        7     3.946       24     32.9    1.298     0.48       10       11     2019  NO_0°-50%.PRM
