AquaCrop 6.0 (March 2017) - Output created on (date) : 14/07/2022   at (time) : 11:09:19

   Run:   1
   Day Month  Year   DAP Stage   WC(1.20)   Rain     Irri   Surf   Infilt   RO    Drain       CR    Zgwt       Ex       E     E/Ex     Trx       Tr  Tr/Trx    ETx      ET  ET/ETx      GD       Z     StExp  StSto  StSen StSalt StWeed   CC      CCw     StTr  Kc(Tr)     Trx       Tr      TrW  Tr/Trx   WP    Biomass     HI  YieldPart  Brelative    WPet  WC(1.20) Wr(0.80)     Z       Wr    Wr(SAT)    Wr(FC)   Wr(exp)   Wr(sto)   Wr(sen)   Wr(PWP)    SaltIn    SaltOut   SaltUp   Salt(1.20)  SaltZ     Z       ECe    ECsw   StSalt  Zgwt    ECgw       WC01       WC 2       WC 3       WC 4       WC 5       WC 6       WC 7       WC 8       WC 9       WC10       WC11       WC12      ECe01      ECe 2      ECe 3      ECe 4      ECe 5      ECe 6      ECe 7      ECe 8      ECe 9      ECe10      ECe11      ECe12     Rain       ETo      Tmin      Tavg      Tmax      CO2
                                      mm      mm       mm     mm     mm     mm       mm       mm      m        mm       mm     %        mm       mm    %        mm      mm       %    °C-day     m       %      %      %      %      %      %       %       %       -        mm       mm       mm    %     g/m2    ton/ha      %    ton/ha       %       kg/m3      mm       mm       m       mm        mm        mm        mm        mm        mm         mm    ton/ha    ton/ha    ton/ha    ton/ha    ton/ha     m      dS/m    dS/m      %     m      dS/m       0.05       0.15       0.25       0.35       0.45       0.55       0.65       0.75       0.85       0.95       1.05       1.15       0.05       0.15       0.25       0.35       0.45       0.55       0.65       0.75       0.85       0.95       1.05       1.15       mm        mm       °C        °C        °C       ppm
     2     7  2009     1     1     384.4     8.4      0.0    0.0    6.0    2.4      0.0      0.0   -9.90      4.4      4.4    100      0.0      0.0   100      4.4     4.4     100     18.0    0.30     -9     -9     -9      0     -9     0.0     0.0      0    -9.00      0.0      0.0      0.0   100     0.0     0.000    -9.9    0.000      -9        0.00     384.4    256.8    0.30    97.3     133.2      95.7      90.7      70.2      71.1      60.0    0.000     0.000     0.000     0.000     0.000    0.30     0.00    0.00      0   -9.90   -9.00       33.5       31.9       31.9       31.9       31.9       31.9       31.9       31.9       31.9       31.9       31.9       31.9        0.0        0.0        0.0        0.0        0.0        0.0        0.0        0.0        0.0        0.0        0.0        0.0      8.4       4.0      22.0      28.4      34.8    387.43
     3     7  2009     2     1     380.4     0.0      0.0    0.0    0.0    0.0      0.0      0.0   -9.90      4.3      3.9     92      0.0      0.0   100      4.3     3.9      92     19.1    0.30     -9     -9     -9      0     -9     0.0     0.0      0    -9.00      0.0      0.0      0.0   100     0.0     0.000    -9.9    0.000      -9        0.00     380.4    252.8    0.30    93.2     133.2      95.7      90.7      70.2      71.1      60.0    0.000     0.000     0.000     0.000     0.000    0.30     0.00    0.00      0   -9.90   -9.00       28.9       32.3       32.1       32.0       31.9       31.9       31.9       31.9       31.9       31.9       31.9       31.9        0.0        0.0        0.0        0.0        0.0        0.0        0.0        0.0        0.0        0.0        0.0        0.0      0.0       3.9      24.1      29.7      35.3    387.43
     4     7  2009     3     1     377.7     0.0      0.0    0.0    0.0    0.0      0.1      0.0   -9.90      4.3      2.7     62      0.0      0.0   100      4.3     2.7      62     20.2    0.30     -9     -9     -9      0     -9     0.0     0.0      0    -9.00      0.0      0.0      0.0   100     0.0     0.000    -9.9    0.000      -9        0.00     377.7    250.1    0.30    90.3     133.2      95.7      90.7      70.2      71.1      60.0    0.000     0.000     0.000     0.000     0.000    0.30     0.00    0.00      0   -9.90   -9.00       26.2       32.1       32.0       32.0       32.0       31.9       31.9       31.9       31.9       31.9       31.9       31.9        0.0        0.0        0.0        0.0        0.0        0.0        0.0        0.0        0.0        0.0        0.0        0.0      0.0       3.9      26.4      31.9      37.5    387.43
     5     7  2009     4     1     385.9    12.6      0.0    0.0   10.5    2.1      0.1      0.0   -9.90      2.2      2.2    100      0.0      0.0   100      2.2     2.2     100     19.1    0.30     -9     -9     -9      0     -9     0.0     0.0      0    -9.00      0.0      0.0      0.0   100     0.0     0.000    -9.9    0.000      -9        0.00     385.9    258.2    0.30    98.4     133.2      95.7      90.7      68.6      71.1      60.0    0.000     0.000     0.000     0.000     0.000    0.30     0.00    0.00      0   -9.90   -9.00       34.4       32.0       32.0       32.0       32.0       31.9       31.9       31.9       31.9       31.9       31.9       31.9        0.0        0.0        0.0        0.0        0.0        0.0        0.0        0.0        0.0        0.0        0.0        0.0     12.6       2.0      25.5      27.1      28.7    387.43
     6     7  2009     5     1     381.6     0.0      0.0    0.0    0.0    0.0      0.2      0.0   -9.90      4.1      4.1    100      0.0      0.0   100      4.1     4.1     100     20.0    0.30     -9     -9     -9      0     -9     0.0     0.0      0    -9.00      0.0      0.0      0.0   100     0.0     0.000    -9.9    0.000      -9        0.00     381.6    253.9    0.30    94.1     133.2      95.7      90.7      70.0      71.1      60.0    0.000     0.000     0.000     0.000     0.000    0.30     0.00    0.00      0   -9.90   -9.00       29.3       32.6       32.2       32.0       32.0       32.0       31.9       31.9       31.9       31.9       31.9       31.9        0.0        0.0        0.0        0.0        0.0        0.0        0.0        0.0        0.0        0.0        0.0        0.0      0.0       3.7      26.0      31.2      36.4    387.43
     7     7  2009     6     1     377.4     0.0      0.0    0.0    0.0    0.0      0.2      0.0   -9.90      4.0      4.0    100      0.0      0.0   100      4.0     4.0     100     19.6    0.30     -9     -9     -9      0     -9     0.0     0.0      0    -9.00      0.0      0.0      0.0   100     0.0     0.000    -9.9    0.000      -9        0.00     377.4    249.7    0.30    89.7     133.2      95.7      90.7      69.9      71.1      60.0    0.000     0.000     0.000     0.000     0.000    0.30     0.00    0.00      0   -9.90   -9.00       25.3       32.3       32.1       32.1       32.0       32.0       32.0       31.9       31.9       31.9       31.9       31.9        0.0        0.0        0.0        0.0        0.0        0.0        0.0        0.0        0.0        0.0        0.0        0.0      0.0       3.6      25.2      30.0      34.9    387.43
     8     7  2009     7     2     374.3     0.0      0.0    0.0    0.0    0.0      0.3      0.0   -9.90      3.6      2.8     78      0.0      0.0   100      3.6     2.8      78     20.1    0.30     -9      0      0      0     45     0.2     0.1      0     0.00      0.0      0.0      0.0   100    34.2     0.001    -9.9    0.000      74        0.00     374.3    246.6    0.30    86.6     133.2      95.7      88.4      69.7      69.7      60.0    0.000     0.000     0.000     0.000     0.000    0.30     0.00    0.00      0   -9.90   -9.00       22.5       32.1       32.0       32.0       32.0       32.0       32.0       32.0       32.0       31.9       31.9       31.9        0.0        0.0        0.0        0.0        0.0        0.0        0.0        0.0        0.0        0.0        0.0        0.0      0.0       3.3      26.2      30.2      34.2    387.43
     9     7  2009     8     2     371.8     0.0      0.0    0.0    0.0    0.0      0.3      0.0   -9.90      4.3      2.2     52      0.0      0.0   100      4.3     2.3      52     20.5    0.30     -9      0      0      0     45     0.2     0.1      0     0.00      0.0      0.0      0.0   100    34.2     0.002    -9.9    0.000      69        0.00     371.8    244.0    0.30    84.2     133.2      95.7      89.2      70.2      70.2      60.0    0.000     0.000     0.000     0.000     0.000    0.30     0.00    0.00      0   -9.90   -9.00       20.2       32.0       32.0       32.0       32.0       32.0       32.0       32.0       31.9       31.9       31.9       31.9        0.0        0.0        0.0        0.0        0.0        0.0        0.0        0.0        0.0        0.0        0.0        0.0      0.0       3.9      27.0      32.1      37.3    387.43
    10     7  2009     9     2     370.0     0.0      0.0    0.0    0.0    0.0      0.2      0.0   -9.90      3.8      1.5     39      0.0      0.0   100      3.8     1.5      39     21.0    0.30     -9      0      0      0     45     0.3     0.1      0     0.00      0.0      0.0      0.0   100    34.2     0.003    -9.9    0.000      66        0.00     370.0    242.3    0.30    82.6     133.2      95.7      88.7      69.8      69.8      60.0    0.000     0.000     0.000     0.000     0.000    0.30     0.00    0.00      0   -9.90   -9.00       18.7       32.0       31.9       31.9       31.9       31.9       31.9       31.9       31.9       31.9       31.9       31.9        0.0        0.0        0.0        0.0        0.0        0.0        0.0        0.0        0.0        0.0        0.0        0.0      0.0       3.5      28.0      32.3      36.5    387.43
    11     7  2009    10     2     369.7     4.3      0.0    0.0    4.3    0.0      0.2      0.0   -9.90      4.6      4.5     97      0.0      0.0   100      4.6     4.5      97     19.0    0.30      3      0      0      0     45     0.3     0.2      0     0.01      0.0      0.0      0.0   100    34.2     0.005    -9.9    0.000      64        0.00     369.7    242.0    0.30    82.4     133.2      95.7      89.6      70.4      70.4      60.0    0.000     0.000     0.000     0.000     0.000    0.30     0.00    0.00      0   -9.90   -9.00       18.6       31.9       31.9       31.9       31.9       31.9       31.9       31.9       31.9       31.9       31.9       31.9        0.0        0.0        0.0        0.0        0.0        0.0        0.0        0.0        0.0        0.0        0.0        0.0      4.3       4.2      24.0      30.3      36.6    387.43
    12     7  2009    11     2     369.6     4.3      0.0    0.0    4.3    0.0      0.1      0.0   -9.90      4.3      4.3    100      0.0      0.0   100      4.3     4.3     100     20.5    0.30      3      0      0      0     45     0.3     0.2      0     0.01      0.0      0.0      0.0   100    34.2     0.006    -9.9    0.000      61        0.00     369.6    242.0    0.30    82.4     133.2      95.7      89.2      70.2      70.2      60.0    0.000     0.000     0.000     0.000     0.000    0.30     0.00    0.00      0   -9.90   -9.00       18.6       31.9       31.9       31.9       31.9       31.9       31.9       31.9       31.9       31.9       31.9       31.9        0.0        0.0        0.0        0.0        0.0        0.0        0.0        0.0        0.0        0.0        0.0        0.0      4.3       3.9      27.0      32.3      37.6    387.43
    13     7  2009    12     2     377.9    12.9      0.0    0.0   12.0    0.9      0.0      0.0   -9.90      3.6      3.6    100      0.0      0.0   100      3.6     3.6     100     19.5    0.30      0      0      0      0     45     0.4     0.2      0     0.01      0.0      0.0      0.0   100    34.2     0.008    -9.9    0.000      59        0.00     377.9    250.3    0.30    90.8     133.2      95.7      88.4      69.7      69.7      60.0    0.000     0.000     0.000     0.000     0.000    0.30     0.00    0.00      0   -9.90   -9.00       27.0       31.9       31.9       31.9       31.9       31.9       31.9       31.9       31.9       31.9       31.9       31.9        0.0        0.0        0.0        0.0        0.0        0.0        0.0        0.0        0.0        0.0        0.0        0.0     12.9       3.3      25.0      29.4      33.8    387.43
    14     7  2009    13     2     377.9     4.3      0.0    0.0    4.2    0.1      0.0      0.0   -9.90      4.2      4.2    100      0.0      0.0   100      4.2     4.2     100     19.8    0.31      0      0      0      0     45     0.4     0.2      0     0.01      0.0      0.0      0.0   100    34.2     0.010    -9.9    0.000      57        0.00     377.9    250.3    0.31    92.9     136.2      97.8      91.1      71.6      71.6      61.3    0.000     0.000     0.000     0.000     0.000    0.31     0.00    0.00      0   -9.90   -9.00       27.0       31.9       31.9       31.9       31.9       31.9       31.9       31.9       31.9       31.9       31.9       31.9        0.0        0.0        0.0        0.0        0.0        0.0        0.0        0.0        0.0        0.0        0.0        0.0      4.3       3.8      25.5      30.6      35.7    387.43
    15     7  2009    14     2     381.4     8.6      0.0    0.0    7.6    1.0      0.0      0.0   -9.90      4.0      4.0    100      0.0      0.0   100      4.1     4.1     100     18.3    0.31      0      0      0      0     45     0.4     0.2      0     0.01      0.0      0.0      0.0   100    34.2     0.012    -9.9    0.000      54        0.00     381.4    253.8    0.31    98.7     139.4     100.2      93.1      73.3      73.3      62.8    0.000     0.000     0.000     0.000     0.000    0.31     0.00    0.00      0   -9.90   -9.00       30.5       31.9       31.9       31.9       31.9       31.9       31.9       31.9       31.9       31.9       31.9       31.9        0.0        0.0        0.0        0.0        0.0        0.0        0.0        0.0        0.0        0.0        0.0        0.0      8.6       3.7      22.6      27.9      33.1    387.43
    16     7  2009    15     2     379.4     2.3      0.0    0.0    2.2    0.1      0.0      0.0   -9.90      4.5      4.2     94      0.0      0.0   100      4.5     4.2      94     18.6    0.32      0      0      0      0     45     0.5     0.3      0     0.01      0.0      0.0      0.0   100    34.2     0.014    -9.9    0.000      52        0.00     379.4    251.8    0.32    99.0     142.6     102.5      95.8      75.3      75.3      64.2    0.000     0.000     0.000     0.000     0.000    0.32     0.00    0.00      0   -9.90   -9.00       28.5       31.9       31.9       31.9       31.9       31.9       31.9       31.9       31.9       31.9       31.9       31.9        0.0        0.0        0.0        0.0        0.0        0.0        0.0        0.0        0.0        0.0        0.0        0.0      2.3       4.1      23.3      29.4      35.5    387.43
    17     7  2009    16     2     376.6     0.0      0.0    0.0    0.0    0.0      0.0      0.0   -9.90      4.2      2.7     64      0.0      0.0   100      4.3     2.8      65     19.5    0.33      0      0      0      0     45     0.6     0.3      0     0.01      0.0      0.0      0.0   100    34.2     0.016    -9.9    0.000      50        0.00     376.6    249.0    0.33    98.5     145.8     104.7      97.6      76.8      76.8      65.7    0.000     0.000     0.000     0.000     0.000    0.33     0.00    0.00      0   -9.90   -9.00       25.7       31.9       31.9       31.9       31.9       31.9       31.9       31.9       31.9       31.9       31.9       31.9        0.0        0.0        0.0        0.0        0.0        0.0        0.0        0.0        0.0        0.0        0.0        0.0      0.0       3.9      25.0      30.4      35.7    387.43
    18     7  2009    17     2     374.7     0.0      0.0    0.0    0.0    0.0      0.0      0.0   -9.90      4.0      1.9     47      0.0      0.0   100      4.1     1.9      48     19.3    0.34      0      0      0      0     45     0.6     0.3      0     0.01      0.0      0.0      0.0   100    34.2     0.019    -9.9    0.000      48        0.00     374.7    247.1    0.34    98.8     148.8     106.9      99.4      78.2      78.2      67.0    0.000     0.000     0.000     0.000     0.000    0.34     0.00    0.00      0   -9.90   -9.00       23.8       31.9       31.9       31.9       31.9       31.9       31.9       31.9       31.9       31.9       31.9       31.9        0.0        0.0        0.0        0.0        0.0        0.0        0.0        0.0        0.0        0.0        0.0        0.0      0.0       3.7      24.6      29.6      34.6    387.43
    19     7  2009    18     2     373.3     0.0      0.0    0.0    0.0    0.0      0.0      0.0   -9.90      3.4      1.3     38      0.0      0.0   100      3.4     1.3      39     20.6    0.34      0      0      0      0     45     0.7     0.4      0     0.01      0.0      0.0      0.0   100    34.2     0.022    -9.9    0.000      46        0.00     373.3    245.7    0.34    99.7     151.9     109.1     100.5      79.2      79.2      68.4    0.000     0.000     0.000     0.000     0.000    0.34     0.00    0.00      0   -9.90   -9.00       22.5       31.9       31.9       31.9       31.9       31.9       31.9       31.9       31.9       31.9       31.9       31.9        0.0        0.0        0.0        0.0        0.0        0.0        0.0        0.0        0.0        0.0        0.0        0.0      0.0       3.1      27.1      30.4      33.7    387.43
    20     7  2009    19     2     372.3     2.3      0.0    0.0    2.3    0.0      0.0      0.0   -9.90      3.4      3.3     97      0.0      0.0   100      3.4     3.3      97     20.6    0.35      0      0      0      0     45     0.8     0.4      0     0.01      0.0      0.0      0.0   100    34.2     0.026    -9.9    0.000      44        0.00     372.3    244.7    0.35   100.8     154.9     111.3     102.5      80.8      80.8      69.8    0.000     0.000     0.000     0.000     0.000    0.35     0.00    0.00      0   -9.90   -9.00       21.4       31.9       31.9       31.9       31.9       31.9       31.9       31.9       31.9       31.9       31.9       31.9        0.0        0.0        0.0        0.0        0.0        0.0        0.0        0.0        0.0        0.0        0.0        0.0      2.3       3.1      27.3      30.9      34.4    387.43
    21     7  2009    20     2     375.8     8.6      0.0    0.0    8.2    0.4      0.0      0.0   -9.90      4.7      4.7    100      0.1      0.1   100      4.7     4.7     100     16.9    0.36      0      0      0      0     45     0.8     0.5      0     0.02      0.1      0.1      0.0   100    34.2     0.029    -9.9    0.000      42        0.00     375.8    248.2    0.36   106.4     157.8     113.4     106.3      83.5      83.5      71.1    0.000     0.000     0.000     0.000     0.000    0.36     0.00    0.00      0   -9.90   -9.00       24.9       31.9       31.9       31.9       31.9       31.9       31.9       31.9       31.9       31.9       31.9       31.9        0.0        0.0        0.0        0.0        0.0        0.0        0.0        0.0        0.0        0.0        0.0        0.0      8.6       4.3      19.9      27.2      34.5    387.43
    22     7  2009    21     2     371.8     0.0      0.0    0.0    0.0    0.0      0.0      0.0   -9.90      4.0      4.0     99      0.1      0.1   100      4.1     4.0      99     19.5    0.36      0      0      0      0     45     0.9     0.5      0     0.02      0.1      0.1      0.0   100    34.2     0.034    -9.9    0.000      40        0.00     371.8    244.2    0.36   104.5     160.7     115.5     107.3      84.4      84.4      72.4    0.000     0.000     0.000     0.000     0.000    0.36     0.00    0.00      0   -9.90   -9.00       20.9       31.9       31.9       31.9       31.9       31.9       31.9       31.9       31.9       31.9       31.9       31.9        0.0        0.0        0.0        0.0        0.0        0.0        0.0        0.0        0.0        0.0        0.0        0.0      0.0       3.7      25.0      29.8      34.5    387.43
    23     7  2009    22     2     369.0     0.0      0.0    0.0    0.0    0.0      0.0      0.0   -9.90      4.1      2.7     66      0.1      0.1   100      4.2     2.8      66     20.1    0.37      2      0      0      0     45     1.0     0.6      0     0.02      0.1      0.1      0.1   100    34.2     0.038    -9.9    0.000      38        0.00     369.0    241.4    0.37   103.7     163.6     117.5     109.4      86.1      86.1      73.7    0.000     0.000     0.000     0.000     0.000    0.37     0.00    0.00      0   -9.90   -9.00       18.2       31.8       31.9       31.9       31.9       31.9       31.9       31.9       31.9       31.9       31.9       31.9        0.0        0.0        0.0        0.0        0.0        0.0        0.0        0.0        0.0        0.0        0.0        0.0      0.0       3.8      26.2      31.1      36.1    387.43
    24     7  2009    23     2     369.4     4.3      0.0    0.0    4.3    0.0      0.0      0.0   -9.90      3.9      3.9    100      0.1      0.1   100      4.0     4.0     100     20.8    0.37      1      0      0      0     45     1.1     0.6      0     0.02      0.1      0.1      0.1   100    34.2     0.043    -9.9    0.000      37        0.00     369.4    241.8    0.37   106.1     166.4     119.6     111.0      87.3      87.3      75.0    0.000     0.000     0.000     0.000     0.000    0.37     0.00    0.00      0   -9.90   -9.00       18.6       31.7       31.9       31.9       31.9       31.9       31.9       31.9       31.9       31.9       31.9       31.9        0.0        0.0        0.0        0.0        0.0        0.0        0.0        0.0        0.0        0.0        0.0        0.0      4.3       3.6      27.5      31.8      36.0    387.43
    25     7  2009    24     2     370.0     4.3      0.0    0.0    4.3    0.0      0.0      0.0   -9.90      3.6      3.6    100      0.1      0.1   100      3.6     3.6     100     20.7    0.38      0      0      0      0     45     1.3     0.7      0     0.02      0.1      0.1      0.1   100    34.2     0.049    -9.9    0.000      35        0.00     370.0    242.4    0.38   108.8     169.2     121.6     112.3      88.5      88.5      76.2    0.000     0.000     0.000     0.000     0.000    0.38     0.00    0.00      0   -9.90   -9.00       19.4       31.7       31.9       31.9       31.9       31.9       31.9       31.9       31.9       31.9       31.9       31.9        0.0        0.0        0.0        0.0        0.0        0.0        0.0        0.0        0.0        0.0        0.0        0.0      4.3       3.3      27.4      31.0      34.6    387.43
    26     7  2009    25     2     367.8     0.0      0.0    0.0    0.0    0.0      0.0      0.0   -9.90      3.8      2.2     58      0.1      0.1   100      3.8     2.3      59     20.5    0.39      3      0      0      0     45     1.4     0.8      0     0.03      0.1      0.1      0.1   100    34.2     0.055    -9.9    0.000      33        0.00     367.8    240.2    0.39   108.5     172.0     123.6     114.5      90.1      90.1      77.5    0.000     0.000     0.000     0.000     0.000    0.39     0.00    0.00      0   -9.90   -9.00       17.2       31.6       31.9       31.9       31.9       31.9       31.9       31.9       31.9       31.9       31.9       31.9        0.0        0.0        0.0        0.0        0.0        0.0        0.0        0.0        0.0        0.0        0.0        0.0      0.0       3.5      27.0      31.1      35.1    387.43
    27     7  2009    26     2     379.3    17.5      0.0    0.0   15.6    1.9      0.0      0.0   -9.90      4.0      4.0    100      0.1      0.1   100      4.1     4.1     100     19.3    0.39      0      0      0      0     45     1.6     0.9      0     0.03      0.1      0.1      0.1   100    34.2     0.062    -9.9    0.000      32        0.00     379.3    251.7    0.39   122.0     174.7     125.5     116.7      91.8      91.8      78.7    0.000     0.000     0.000     0.000     0.000    0.39     0.00    0.00      0   -9.90   -9.00       28.7       31.6       31.9       31.9       31.9       31.9       31.9       31.9       31.9       31.9       31.9       31.9        0.0        0.0        0.0        0.0        0.0        0.0        0.0        0.0        0.0        0.0        0.0        0.0     17.5       3.7      24.5      29.4      34.2    387.43
    28     7  2009    27     2     375.5     0.0      0.0    0.0    0.0    0.0      0.0      0.0   -9.90      3.6      3.6    100      0.1      0.1   100      3.7     3.7     100     20.0    0.40      0      0      0      0     45     1.7     1.0      0     0.03      0.1      0.1      0.1   100    34.2     0.070    -9.9    0.000      30        0.00     375.5    247.9    0.40   120.2     177.4     127.5     117.9      92.9      92.9      79.9    0.000     0.000     0.000     0.000     0.000    0.40     0.00    0.00      0   -9.90   -9.00       24.9       31.6       31.9       31.9       31.9       31.9       31.9       31.9       31.9       31.9       31.9       31.9        0.0        0.0        0.0        0.0        0.0        0.0        0.0        0.0        0.0        0.0        0.0        0.0      0.0       3.4      26.0      30.1      34.2    387.43
    29     7  2009    28     2     377.0     5.9      0.0    0.0    5.7    0.2      0.0      0.0   -9.90      4.0      4.0    100      0.1      0.1   100      4.2     4.2     100     18.2    0.41      0      0      0      0     45     1.9     1.1      0     0.03      0.1      0.1      0.1   100    34.2     0.079    -9.9    0.000      29        0.00     377.0    249.4    0.41   123.6     180.1     129.4     120.5      94.7      94.7      81.1    0.000     0.000     0.000     0.000     0.000    0.41     0.00    0.00      0   -9.90   -9.00       26.4       31.6       31.9       31.9       31.9       31.9       31.9       31.9       31.9       31.9       31.9       31.9        0.0        0.0        0.0        0.0        0.0        0.0        0.0        0.0        0.0        0.0        0.0        0.0      5.9       3.8      22.4      27.8      33.1    387.43
    30     7  2009    29     2     382.2    11.6      0.0    0.0    9.8    1.8      0.0      0.0   -9.90      4.5      4.5    100      0.2      0.2   100      4.6     4.6     100     18.3    0.41      0      0      0      0     45     2.1     1.2      0     0.04      0.2      0.2      0.1   100    34.2     0.088    -9.9    0.000      27        0.00     382.2    254.6    0.41   130.7     182.8     131.3     123.0      96.6      96.6      82.3    0.000     0.000     0.000     0.000     0.000    0.41     0.00    0.00      0   -9.90   -9.00       31.6       31.6       31.9       31.9       31.9       31.9       31.9       31.9       31.9       31.9       31.9       31.9        0.0        0.0        0.0        0.0        0.0        0.0        0.0        0.0        0.0        0.0        0.0        0.0     11.6       4.2      22.5      28.5      34.5    387.43
    31     7  2009    30     2     382.8     5.9      0.0    0.0    4.7    1.2      0.0      0.0   -9.90      3.9      3.9    100      0.2      0.2   100      4.1     4.1     100     19.5    0.42      0      0      0      0     45     2.4     1.3      0     0.04      0.2      0.2      0.1   100    34.2     0.099    -9.9    0.000      26        0.00     382.8    255.2    0.42   133.2     185.4     133.2     123.8      97.4      97.4      83.5    0.000     0.000     0.000     0.000     0.000    0.42     0.00    0.00      0   -9.90   -9.00       32.3       31.6       31.9       31.9       31.9       31.9       31.9       31.9       31.9       31.9       31.9       31.9        0.0        0.0        0.0        0.0        0.0        0.0        0.0        0.0        0.0        0.0        0.0        0.0      5.9       3.7      25.0      29.6      34.2    387.43
     1     8  2009    31     2     379.4     0.0      0.0    0.0    0.0    0.0      0.0      0.0   -9.90      3.8      3.3     87      0.2      0.2   100      4.0     3.5      88     20.1    0.42      0      0      0      0     45     2.6     1.5      0     0.05      0.2      0.2      0.1   100    34.2     0.111    -9.9    0.000      25        0.00     379.4    251.8    0.42   131.6     188.0     135.1     125.4      98.7      98.7      84.7    0.000     0.000     0.000     0.000     0.000    0.42     0.00    0.00      0   -9.90   -9.00       28.6       31.7       31.9       31.9       31.9       31.9       31.9       31.9       31.9       31.9       31.9       31.9        0.0        0.0        0.0        0.0        0.0        0.0        0.0        0.0        0.0        0.0        0.0        0.0      0.0       3.6      26.3      30.5      34.8    387.43
     2     8  2009    32     2     383.3    10.1      0.0    0.0    8.3    1.8      0.0      0.0   -9.90      4.2      4.2    100      0.2      0.2   100      4.4     4.4     100     18.6    0.43      0      0      0      0     45     2.9     1.6      0     0.05      0.2      0.2      0.2   100    34.2     0.124    -9.9    0.000      24        0.00     383.3    255.7    0.43   137.4     190.6     136.9     127.9     100.5     100.5      85.9    0.000     0.000     0.000     0.000     0.000    0.43     0.00    0.00      0   -9.90   -9.00       32.5       31.7       31.9       31.9       31.9       31.9       31.9       31.9       31.9       31.9       31.9       31.9        0.0        0.0        0.0        0.0        0.0        0.0        0.0        0.0        0.0        0.0        0.0        0.0     10.1       4.0      23.3      28.7      34.1    387.43
     3     8  2009    33     2     387.1    15.1      0.0    0.0    8.4    6.7      0.0      0.0   -9.90      4.4      4.4    100      0.2      0.2   100      4.6     4.6     100     17.4    0.44      0      0      0      0     45     3.3     1.8      0     0.06      0.2      0.2      0.2   100    34.2     0.138    -9.9    0.000      22        0.00     387.1    259.5    0.44   143.0     193.2     138.8     130.0     102.1     102.1      87.0    0.000     0.000     0.000     0.000     0.000    0.44     0.00    0.00      0   -9.90   -9.00       36.1       32.0       31.9       31.9       31.9       31.9       31.9       31.9       31.9       31.9       31.9       31.9        0.0        0.0        0.0        0.0        0.0        0.0        0.0        0.0        0.0        0.0        0.0        0.0     15.1       4.2      20.8      27.2      33.6    387.43
     4     8  2009    34     2     382.7     0.0      0.0    0.0    0.0    0.0      0.0      0.0   -9.90      4.0      4.0    100      0.3      0.3   100      4.3     4.3     100     19.3    0.44      0      0      0      0     45     3.6     2.0      0     0.06      0.3      0.3      0.2   100    34.2     0.154    -9.9    0.000      21        0.00     382.7    255.1    0.44   140.4     195.7     140.6     131.1     103.1     103.1      88.2    0.000     0.000     0.000     0.000     0.000    0.44     0.00    0.00      0   -9.90   -9.00       29.9       33.0       32.4       32.1       32.0       31.9       31.9       31.9       31.9       31.9       31.9       31.9        0.0        0.0        0.0        0.0        0.0        0.0        0.0        0.0        0.0        0.0        0.0        0.0      0.0       3.9      24.5      29.4      34.3    387.43
     5     8  2009    35     2     385.9    10.1      0.0    0.0    7.8    2.3      0.2      0.0   -9.90      4.2      4.2    100      0.3      0.3   100      4.5     4.5     100     19.1    0.45      0      0      0      0     45     4.1     2.2      0     0.07      0.3      0.3      0.2   100    34.2     0.172    -9.9    0.000      20        0.00     385.9    258.1    0.45   145.1     198.3     142.4     133.2     104.7     104.7      89.3    0.000     0.000     0.000     0.000     0.000    0.45     0.00    0.00      0   -9.90   -9.00       33.2       32.5       32.2       32.2       32.1       32.0       32.0       32.0       31.9       31.9       31.9       31.9        0.0        0.0        0.0        0.0        0.0        0.0        0.0        0.0        0.0        0.0        0.0        0.0     10.1       4.1      24.3      29.7      35.1    387.43
     6     8  2009    36     2     389.0    11.4      0.0    0.0    7.2    4.2      0.3      0.0   -9.90      3.5      3.5    100      0.3      0.3   100      3.7     3.7     100     19.8    0.45      0      0      0      0     45     4.5     2.5      0     0.08      0.3      0.3      0.2   100    34.2     0.192    -9.9    0.000      20        0.00     389.0    261.2    0.45   149.8     200.8     144.3     133.5     105.1     105.1      90.4    0.000     0.000     0.000     0.000     0.000    0.45     0.00    0.00      0   -9.90   -9.00       36.2       32.6       32.2       32.1       32.1       32.0       32.0       32.0       32.0       32.0       32.0       31.9        0.0        0.0        0.0        0.0        0.0        0.0        0.0        0.0        0.0        0.0        0.0        0.0     11.4       3.4      25.5      29.2      32.9    387.43
     7     8  2009    37     2     390.1     7.7      0.0    0.0    5.6    2.1      0.5      0.0   -9.90      3.7      3.7    100      0.3      0.3   100      4.1     4.1     100     18.9    0.46      0      0      0      0     45     5.1     2.8      0     0.09      0.3      0.3      0.2   100    34.2     0.214    -9.9    0.000      19        0.00     390.1    262.2    0.46   152.6     203.3     146.0     135.8     106.8     106.8      91.6    0.000     0.000     0.000     0.000     0.000    0.46     0.00    0.00      0   -9.90   -9.00       35.9       33.3       32.6       32.2       32.1       32.1       32.0       32.0       32.0       32.0       32.0       32.0        0.0        0.0        0.0        0.0        0.0        0.0        0.0        0.0        0.0        0.0        0.0        0.0      7.7       3.7      23.9      28.4      33.0    387.43
     8     8  2009    38     2     391.1     7.7      0.0    0.0    5.6    2.1      0.6      0.0   -9.90      3.7      3.7    100      0.4      0.4   100      4.1     4.1     100     19.0    0.46      0      0      0      0     45     5.7     3.1      0     0.10      0.4      0.4      0.3   100    34.2     0.239    -9.9    0.000      19        0.00     391.1    263.1    0.46   155.1     205.8     147.8     137.4     108.1     108.1      92.7    0.000     0.000     0.000     0.000     0.000    0.46     0.00    0.00      0   -9.90   -9.00       35.7       33.7       32.8       32.4       32.2       32.1       32.1       32.0       32.0       32.0       32.0       32.0        0.0        0.0        0.0        0.0        0.0        0.0        0.0        0.0        0.0        0.0        0.0        0.0      7.7       3.7      24.0      28.5      33.0    387.43
     9     8  2009    39     2     389.6     3.8      0.0    0.0    3.3    0.5      0.9      0.0   -9.90      3.5      3.5    100      0.4      0.4   100      3.9     3.9     100     19.0    0.47      0      0      0      0     45     6.4     3.5      0     0.11      0.4      0.4      0.3   100    34.2     0.266    -9.9    0.000      19        0.00     389.6    261.5    0.47   155.0     208.2     149.6     138.8     109.3     109.3      93.8    0.000     0.000     0.000     0.000     0.000    0.47     0.00    0.00      0   -9.90   -9.00       33.4       33.8       32.9       32.5       32.3       32.2       32.1       32.1       32.1       32.0       32.0       32.0        0.0        0.0        0.0        0.0        0.0        0.0        0.0        0.0        0.0        0.0        0.0        0.0      3.8       3.6      24.0      28.3      32.5    387.43
    10     8  2009    40     2     385.7     0.0      0.0    0.0    0.0    0.0      1.1      0.0   -9.90      3.4      2.4     71      0.4      0.4   100      3.8     2.9      75     20.0    0.47      0      0      0      0     45     7.1     3.9      0     0.12      0.4      0.4      0.3   100    34.1     0.297    -9.9    0.000      19        0.00     385.7    257.4    0.47   152.5     210.7     151.4     140.3     110.4     110.4      94.9    0.000     0.000     0.000     0.000     0.000    0.47     0.00    0.00      0   -9.90   -9.00       29.9       33.0       32.9       32.6       32.4       32.3       32.2       32.1       32.1       32.1       32.1       32.0        0.0        0.0        0.0        0.0        0.0        0.0        0.0        0.0        0.0        0.0        0.0        0.0      0.0       3.5      26.0      29.9      33.8    387.43
    11     8  2009    41     2     388.1    10.6      0.0    0.0    8.1    2.5      1.3      0.0   -9.90      3.8      3.8    100      0.5      0.5   100      4.4     4.4     100     18.5    0.48      0      0      0      0     45     8.0     4.4      0     0.14      0.5      0.5      0.4   100    34.1     0.331    -9.9    0.000      19        0.00     388.1    259.7    0.48   156.7     213.1     153.1     143.0     112.4     112.4      96.0    0.000     0.000     0.000     0.000     0.000    0.48     0.00    0.00      0   -9.90   -9.00       33.6       32.5       32.5       32.3       32.3       32.2       32.2       32.1       32.1       32.1       32.1       32.1        0.0        0.0        0.0        0.0        0.0        0.0        0.0        0.0        0.0        0.0        0.0        0.0     10.6       4.0      23.0      28.3      33.5    387.43
    12     8  2009    42     2     391.4    16.0      0.0    0.0    8.7    7.3      1.2      0.0   -9.90      3.6      3.6    100      0.6      0.6   100      4.1     4.1     100     19.1    0.49      0      0      0      0     45     8.9     4.9      0     0.15      0.6      0.6      0.4   100    34.1     0.368    -9.9    0.000      19        0.00     391.4    263.1    0.49   162.0     215.5     154.8     144.1     113.4     113.4      97.1    0.000     0.000     0.000     0.000     0.000    0.49     0.00    0.00      0   -9.90   -9.00       37.4       32.7       32.3       32.2       32.2       32.1       32.1       32.1       32.1       32.1       32.1       32.0        0.0        0.0        0.0        0.0        0.0        0.0        0.0        0.0        0.0        0.0        0.0        0.0     16.0       3.8      24.2      28.9      33.6    387.43
    13     8  2009    43     2     392.7    10.6      0.0    0.0    6.9    3.7      1.0      0.0   -9.90      3.9      3.9    100      0.7      0.7   100      4.6     4.6     100     17.8    0.49      0      0      0      0     45    10.0     5.5      0     0.17      0.7      0.7      0.5   100    34.1     0.410    -9.9    0.000      19        0.00     392.7    264.5    0.49   165.3     217.9     156.6     146.6     115.2     115.2      98.2    0.000     0.000     0.000     0.000     0.000    0.49     0.00    0.00      0   -9.90   -9.00       37.3       33.7       32.8       32.3       32.2       32.1       32.1       32.1       32.1       32.0       32.0       32.0        0.0        0.0        0.0        0.0        0.0        0.0        0.0        0.0        0.0        0.0        0.0        0.0     10.6       4.2      21.5      27.1      32.8    387.43
    14     8  2009    44     2     388.0     0.0      0.0    0.0    0.0    0.0      1.0      0.0   -9.90      3.1      3.1    100      0.6      0.6   100      3.7     3.7     100     20.1    0.50      0      0      0      0     45    11.0     6.0      0     0.19      0.6      0.6      0.5   100    34.1     0.456    -9.9    0.000      20        0.00     388.0    259.8    0.50   162.2     220.3     158.3     146.5     115.4     115.4      99.2    0.000     0.000     0.000     0.000     0.000    0.50     0.00    0.00      0   -9.90   -9.00       31.2       34.2       33.1       32.6       32.3       32.2       32.1       32.1       32.1       32.0       32.0       32.0        0.0        0.0        0.0        0.0        0.0        0.0        0.0        0.0        0.0        0.0        0.0        0.0      0.0       3.4      26.3      29.7      33.1    387.43
    15     8  2009    45     2     387.5     6.1      0.0    0.0    5.0    1.1      1.1      0.0   -9.90      3.6      3.6    100      0.8      0.8   100      4.4     4.4     100     17.8    0.50      0      0      0      0     45    11.8     6.5      0     0.20      0.8      0.8      0.6   100    34.1     0.504    -9.9    0.000      20        0.00     387.5    259.2    0.50   163.1     222.7     160.0     149.4     117.4     117.4     100.3    0.000     0.000     0.000     0.000     0.000    0.50     0.00    0.00      0   -9.90   -9.00       31.8       33.2       32.6       32.6       32.4       32.3       32.2       32.1       32.1       32.1       32.1       32.0        0.0        0.0        0.0        0.0        0.0        0.0        0.0        0.0        0.0        0.0        0.0        0.0      6.1       4.0      21.6      26.8      32.0    387.43
    16     8  2009    46     2     381.7     0.0      0.0    0.0    0.0    0.0      1.3      0.0   -9.90      3.9      3.6     92      0.9      0.9   100      4.8     4.5      93     16.9    0.51      0      0      0      0     45    12.5     6.9      0     0.21      0.9      0.9      0.7   100    34.0     0.555    -9.9    0.000      21        0.00     381.7    253.4    0.51   159.1     225.1     161.7     151.9     119.2     119.2     101.4    0.000     0.000     0.000     0.000     0.000    0.51     0.00    0.00      0   -9.90   -9.00       27.4       32.6       32.3       32.3       32.3       32.2       32.2       32.2       32.1       32.1       32.1       32.1        0.0        0.0        0.0        0.0        0.0        0.0        0.0        0.0        0.0        0.0        0.0        0.0      0.0       4.4      19.8      26.3      32.8    387.43
    17     8  2009    47     2     382.4     6.8      0.0    0.0    6.2    0.6      1.2      0.0   -9.90      3.5      3.5    100      0.9      0.9   100      4.4     4.4     100     19.0    0.51      0      0      0      0     45    13.2     7.2      0     0.22      0.9      0.9      0.6   100    34.0     0.609    -9.9    0.000      21        0.00     382.4    254.2    0.51   161.8     227.4     163.4     152.6     119.9     119.9     102.4    0.000     0.000     0.000     0.000     0.000    0.51     0.00    0.00      0   -9.90   -9.00       29.2       32.3       32.1       32.1       32.1       32.1       32.1       32.1       32.1       32.1       32.1       32.0        0.0        0.0        0.0        0.0        0.0        0.0        0.0        0.0        0.0        0.0        0.0        0.0      6.8       4.0      24.0      28.8      33.6    387.43
    18     8  2009    48     2     382.9     6.8      0.0    0.0    5.9    0.9      0.9      0.0   -9.90      3.6      3.6    100      1.0      1.0   100      4.6     4.6     100     18.9    0.52      0      0      0      0     45    13.7     7.5      0     0.23      1.0      1.0      0.7   100    34.0     0.664    -9.9    0.000      22        0.00     382.9    254.9    0.52   164.4     229.8     165.1     154.6     121.4     121.4     103.5    0.000     0.000     0.000     0.000     0.000    0.52     0.00    0.00      0   -9.90   -9.00       30.6       32.1       32.0       32.0       32.0       32.0       32.0       32.0       32.0       32.0       32.0       32.0        0.0        0.0        0.0        0.0        0.0        0.0        0.0        0.0        0.0        0.0        0.0        0.0      6.8       4.2      23.9      29.1      34.3    387.43
    19     8  2009    49     2     383.7     6.8      0.0    0.0    5.6    1.2      0.6      0.0   -9.90      3.3      3.3    100      0.9      0.9   100      4.2     4.2     100     17.9    0.52      0      0      0      0     45    14.1     7.8      0     0.23      0.9      0.9      0.7   100    33.9     0.721    -9.9    0.000      22        0.00     383.7    255.8    0.52   167.2     232.1     166.7     155.5     122.2     122.2     104.5    0.000     0.000     0.000     0.000     0.000    0.52     0.00    0.00      0   -9.90   -9.00       32.0       32.0       32.0       32.0       32.0       32.0       32.0       32.0       32.0       32.0       32.0       32.0        0.0        0.0        0.0        0.0        0.0        0.0        0.0        0.0        0.0        0.0        0.0        0.0      6.8       3.9      21.8      26.7      31.6    387.43
    20     8  2009    50     2     379.3     0.0      0.0    0.0    0.0    0.0      0.4      0.0   -9.90      3.2      3.2     99      0.9      0.9   100      4.1     4.1      99     20.3    0.53      0      0      0      0     45    14.5     8.0      0     0.24      0.9      0.9      0.7   100    33.9     0.779    -9.9    0.000      23        0.00     379.3    251.5    0.53   164.6     234.4     168.4     156.8     123.3     123.3     105.6    0.000     0.000     0.000     0.000     0.000    0.53     0.00    0.00      0   -9.90   -9.00       27.9       32.0       32.0       31.9       31.9       31.9       31.9       31.9       31.9       31.9       31.9       31.9        0.0        0.0        0.0        0.0        0.0        0.0        0.0        0.0        0.0        0.0        0.0        0.0      0.0       3.8      26.6      30.6      34.6    387.43
    21     8  2009    51     2     375.8     0.0      0.0    0.0    0.0    0.0      0.2      0.0   -9.90      3.4      2.3     68      1.0      1.0   100      4.3     3.3      75     19.8    0.53      0      0      0      0     45    14.9     8.2      0     0.25      1.0      1.0      0.7   100    33.8     0.839    -9.9    0.000      23        0.00     375.8    248.1    0.53   162.9     236.7     170.1     158.8     124.8     124.8     106.6    0.000     0.000     0.000     0.000     0.000    0.53     0.00    0.00      0   -9.90   -9.00       24.6       31.9       31.9       31.9       31.9       31.9       31.9       31.9       31.9       31.9       31.9       31.9        0.0        0.0        0.0        0.0        0.0        0.0        0.0        0.0        0.0        0.0        0.0        0.0      0.0       4.0      25.5      30.0      34.5    387.43
    22     8  2009    52     2     383.9    15.2      0.0    0.0   12.7    2.5      0.1      0.0   -9.90      3.5      3.5    100      1.0      1.0   100      4.6     4.6     100     18.0    0.54      0      0      0      0     45    15.2     8.3      0     0.25      1.0      1.0      0.7   100    33.8     0.899    -9.9    0.000      24        0.00     383.9    256.2    0.54   172.7     239.0     171.7     160.8     126.3     126.3     107.7    0.000     0.000     0.000     0.000     0.000    0.54     0.00    0.00      0   -9.90   -9.00       32.8       31.9       31.9       31.9       31.9       31.9       31.9       31.9       31.9       31.9       31.9       31.9        0.0        0.0        0.0        0.0        0.0        0.0        0.0        0.0        0.0        0.0        0.0        0.0     15.2       4.2      22.0      27.1      32.2    387.43
    23     8  2009    53     2     385.1     7.7      0.0    0.0    5.6    2.1      0.1      0.0   -9.90      3.3      3.3    100      1.0      1.0   100      4.3     4.3     100     18.2    0.54      0      0      0      0     45    15.4     8.5      0     0.25      1.0      1.0      0.7   100    33.7     0.960    -9.9    0.000      24        0.00     385.1    257.4    0.54   175.6     241.3     173.4     161.9     127.2     127.2     108.7    0.000     0.000     0.000     0.000     0.000    0.54     0.00    0.00      0   -9.90   -9.00       33.7       32.1       32.0       31.9       31.9       31.9       31.9       31.9       31.9       31.9       31.9       31.9        0.0        0.0        0.0        0.0        0.0        0.0        0.0        0.0        0.0        0.0        0.0        0.0      7.7       4.0      22.4      27.2      32.0    387.43
    24     8  2009    54     2     389.5    15.2      0.0    0.0    8.4    6.8      0.1      0.0   -9.90      3.0      3.0    100      0.9      0.9   100      3.9     3.9     100     19.4    0.55      0      0      0      0     45    15.7     8.6      0     0.26      0.9      0.9      0.7   100    33.6     1.022    -9.9    0.000      25        0.00     389.5    261.9    0.55   181.6     243.6     175.0     162.4     127.8     127.8     109.7    0.000     0.000     0.000     0.000     0.000    0.55     0.00    0.00      0   -9.90   -9.00       37.4       32.5       32.2       32.0       32.0       31.9       31.9       31.9       31.9       31.9       31.9       31.9        0.0        0.0        0.0        0.0        0.0        0.0        0.0        0.0        0.0        0.0        0.0        0.0     15.2       3.6      24.7      28.6      32.5    387.43
    25     8  2009    55     2     396.6    30.4      0.0    0.0   11.3   19.1      0.2      0.0   -9.90      3.1      3.1    100      1.0      1.0   100      4.0     4.0     100     18.8    0.55      0      0      0      0     45    15.8     8.7      0     0.26      1.0      1.0      0.7   100    33.5     1.084    -9.9    0.000      25        0.00     396.6    268.9    0.55   190.1     245.8     176.6     164.2     129.2     129.2     110.7    0.000     0.000     0.000     0.000     0.000    0.55     0.00    0.00      0   -9.90   -9.00       40.4       35.5       32.8       32.2       32.1       32.0       32.0       32.0       31.9       31.9       31.9       31.9        0.0        0.0        0.0        0.0        0.0        0.0        0.0        0.0        0.0        0.0        0.0        0.0     30.4       3.7      23.5      27.6      31.8    387.43
    26     8  2009    56     2     392.3     0.0      0.0    0.0    0.0    0.0      0.5      0.0   -9.90      2.9      2.9    100      0.9      0.9   100      3.8     3.8     100     19.4    0.56      0      0      0      0     45    16.0     8.8      0     0.26      0.9      0.9      0.7   100    33.4     1.146    -9.9    0.000      25        0.00     392.3    264.3    0.56   186.8     248.1     178.2     165.2     130.0     130.0     111.7    0.000     0.000     0.000     0.000     0.000    0.56     0.00    0.00      0   -9.90   -9.00       32.8       36.0       34.0       32.8       32.4       32.2       32.1       32.1       32.0       32.0       32.0       32.0        0.0        0.0        0.0        0.0        0.0        0.0        0.0        0.0        0.0        0.0        0.0        0.0      0.0       3.5      24.8      28.4      32.0    387.43
    27     8  2009    57     2     393.4     9.9      0.0    0.0    6.6    3.3      1.1      0.0   -9.90      3.3      3.3    100      1.1      1.1   100      4.3     4.3     100     20.4    0.56      0      0      0      0     45    16.1     8.9      0     0.26      1.1      1.1      0.8   100    33.3     1.209    -9.9    0.000      25        0.00     393.4    265.0    0.56   188.7     250.3     179.8     167.9     132.0     132.0     112.8    0.000     0.000     0.000     0.000     0.000    0.56     0.00    0.00      0   -9.90   -9.00       34.7       34.2       33.3       33.1       32.7       32.5       32.3       32.2       32.2       32.1       32.1       32.0        0.0        0.0        0.0        0.0        0.0        0.0        0.0        0.0        0.0        0.0        0.0        0.0      9.9       4.0      26.9      31.1      35.4    387.43
    28     8  2009    58     2     397.8    24.8      0.0    0.0   10.5   14.3      1.8      0.0   -9.90      3.2      3.2    100      1.0      1.0   100      4.2     4.2     100     18.6    0.57      0      0      0      0     45    16.2     8.9      0     0.27      1.0      1.0      0.7   100    33.3     1.272    -9.9    0.000      26        0.00     397.8    269.1    0.57   194.2     252.5     181.4     169.2     133.0     133.0     113.8    0.000     0.000     0.000     0.000     0.000    0.57     0.00    0.00      0   -9.90   -9.00       39.7       33.5       33.1       32.8       32.7       32.5       32.4       32.3       32.3       32.2       32.2       32.1        0.0        0.0        0.0        0.0        0.0        0.0        0.0        0.0        0.0        0.0        0.0        0.0     24.8       3.9      23.3      27.6      32.0    387.43
    29     8  2009    59     2     391.7     0.0      0.0    0.0    0.0    0.0      2.2      0.0   -9.90      3.0      3.0    100      1.0      1.0   100      4.0     4.0     100     19.8    0.57      0      0      0      0     45    16.3     9.0      0     0.27      1.0      1.0      0.7   100    33.1     1.334    -9.9    0.000      26        0.00     391.7    262.8    0.57   189.6     254.8     183.0     170.1     133.9     133.9     114.8    0.000     0.000     0.000     0.000     0.000    0.57     0.00    0.00      0   -9.90   -9.00       32.2       34.7       33.3       32.8       32.6       32.5       32.4       32.3       32.3       32.2       32.2       32.2        0.0        0.0        0.0        0.0        0.0        0.0        0.0        0.0        0.0        0.0        0.0        0.0      0.0       3.7      25.5      29.4      33.2    387.43
    30     8  2009    60     2     384.8     0.0      0.0    0.0    0.0    0.0      2.2      0.0   -9.90      3.5      3.5    100      1.2      1.2   100      4.7     4.7     100     19.8    0.58      0      0      0      0     45    16.4     9.0      0     0.27      1.2      1.2      0.8   100    33.0     1.397    -9.9    0.000      26        0.00     384.8    256.0    0.58   184.5     257.0     184.6     173.2     136.0     136.0     115.8    0.000     0.000     0.000     0.000     0.000    0.58     0.00    0.00      0   -9.90   -9.00       27.4       33.5       32.8       32.7       32.5       32.4       32.3       32.3       32.2       32.2       32.2       32.2        0.0        0.0        0.0        0.0        0.0        0.0        0.0        0.0        0.0        0.0        0.0        0.0      0.0       4.3      25.5      30.1      34.8    387.43
    31     8  2009    61     2     389.4    14.9      0.0    0.0   11.3    3.6      2.0      0.0   -9.90      3.5      3.5    100      1.2      1.2   100      4.7     4.7     100     17.9    0.58      0      0      0      0     45    16.4     9.0      0     0.27      1.2      1.2      0.8   100    32.9     1.460    -9.9    0.000      26        0.00     389.4    260.8    0.58   191.0     259.2     186.2     174.7     137.2     137.2     116.7    0.000     0.000     0.000     0.000     0.000    0.58     0.00    0.00      0   -9.90   -9.00       34.0       32.8       32.4       32.4       32.4       32.3       32.3       32.2       32.2       32.2       32.2       32.1        0.0        0.0        0.0        0.0        0.0        0.0        0.0        0.0        0.0        0.0        0.0        0.0     14.9       4.3      21.7      26.9      32.1    387.43
     1     9  2009    62     2     383.4     0.0      0.0    0.0    0.0    0.0      1.6      0.0   -9.90      3.3      3.3    100      1.1      1.1   100      4.3     4.3     100     19.5    0.59      0      0      0      0     45    16.5     9.1      0     0.27      1.1      1.1      0.8   100    32.8     1.523    -9.9    0.000      27        0.00     383.4    255.0    0.59   187.1     261.4     187.8     175.3     137.8     137.8     117.7    0.000     0.000     0.000     0.000     0.000    0.59     0.00    0.00      0   -9.90   -9.00       28.7       32.9       32.4       32.2       32.2       32.2       32.2       32.1       32.1       32.1       32.1       32.1        0.0        0.0        0.0        0.0        0.0        0.0        0.0        0.0        0.0        0.0        0.0        0.0      0.0       4.0      25.0      29.3      33.5    387.43
     2     9  2009    63     2     377.2     0.0      0.0    0.0    0.0    0.0      1.2      0.0   -9.90      3.8      3.7     99      1.2      1.2   100      5.0     5.0      99     18.5    0.59      0      0      0      0     45    16.5     9.1      0     0.27      1.2      1.2      0.9   100    32.6     1.586    -9.9    0.000      27        0.00     377.2    249.0    0.59   182.8     263.6     189.4     178.4     140.0     140.0     118.7    0.000     0.000     0.000     0.000     0.000    0.59     0.00    0.00      0   -9.90   -9.00       23.8       32.5       32.2       32.2       32.1       32.1       32.1       32.1       32.1       32.1       32.0       32.0        0.0        0.0        0.0        0.0        0.0        0.0        0.0        0.0        0.0        0.0        0.0        0.0      0.0       4.6      23.0      28.5      34.0    387.43
     3     9  2009    64     2     383.4    12.9      0.0    0.0   11.3    1.6      0.9      0.0   -9.90      3.3      3.3    100      1.0      1.0   100      4.3     4.3     100     18.0    0.60     -9      0      0      0     45    16.0     8.8      0     0.25      1.0      1.0      0.7   100    32.4     1.644    -9.9    0.000      27        0.00     383.4    255.3    0.60   190.8     265.7     190.9     178.3     140.1     140.1     119.7    0.000     0.000     0.000     0.000     0.000    0.60     0.00    0.00      0   -9.90   -9.00       30.8       32.2       32.1       32.1       32.1       32.0       32.0       32.0       32.0       32.0       32.0       32.0        0.0        0.0        0.0        0.0        0.0        0.0        0.0        0.0        0.0        0.0        0.0        0.0     12.9       4.0      22.0      26.5      31.0    387.43
     4     9  2009    65     2     378.3     0.0      0.0    0.0    0.0    0.0      0.6      0.0   -9.90      3.4      3.4    100      1.0      1.0   100      4.4     4.4     100     19.8    0.60      0      0      0      0     45    16.1     8.8      0     0.26      1.0      1.0      0.7   100    32.3     1.703    -9.9    0.000      27        0.00     378.3    250.4    0.60   187.5     267.9     192.5     180.0     141.4     141.4     120.7    0.000     0.000     0.000     0.000     0.000    0.60     0.00    0.00      0   -9.90   -9.00       26.4       32.1       32.0       32.0       32.0       32.0       32.0       32.0       32.0       32.0       32.0       32.0        0.0        0.0        0.0        0.0        0.0        0.0        0.0        0.0        0.0        0.0        0.0        0.0      0.0       4.1      25.5      29.8      34.0    387.43
     5     9  2009    66     2     379.8     6.5      0.0    0.0    6.1    0.4      0.4      0.0   -9.90      3.2      3.2    100      1.0      1.0   100      4.2     4.2     100     18.4    0.61      0      0      0      0     45    16.1     8.9      0     0.26      1.0      1.0      0.7   100    32.1     1.762    -9.9    0.000      27        0.00     379.8    252.0    0.61   190.7     270.1     194.0     180.9     142.3     142.3     121.7    0.000     0.000     0.000     0.000     0.000    0.61     0.00    0.00      0   -9.90   -9.00       28.3       32.0       32.0       32.0       32.0       32.0       32.0       32.0       32.0       32.0       31.9       31.9        0.0        0.0        0.0        0.0        0.0        0.0        0.0        0.0        0.0        0.0        0.0        0.0      6.5       3.9      22.7      26.9      31.1    387.43
     6     9  2009    67     3     390.9    25.7      0.0    0.0   15.2   10.5      0.3      0.0   -9.90      2.9      2.9    100      0.9      0.9   100      3.8     3.8     100     19.0    0.61      0      0      0      0     45    16.2     8.9      0     0.26      0.9      0.9      0.6   100    32.0     1.821    -9.9    0.000      27        0.00     390.9    263.2    0.61   203.6     272.2     195.6     181.3     142.7     142.7     122.6    0.000     0.000     0.000     0.000     0.000    0.61     0.00    0.00      0   -9.90   -9.00       39.7       32.0       31.9       31.9       31.9       31.9       31.9       31.9       31.9       31.9       31.9       31.9        0.0        0.0        0.0        0.0        0.0        0.0        0.0        0.0        0.0        0.0        0.0        0.0     25.7       3.5      24.0      27.4      30.7    387.43
     7     9  2009    68     3     390.4     5.1      0.0    0.0    4.2    0.9      0.2      0.0   -9.90      3.4      3.4    100      1.1      1.1   100      4.5     4.5     100     19.4    0.62      0      0      0      0     45    16.2     8.9      0     0.26      1.1      1.1      0.8   100    31.8     1.879    -9.9    0.000      27        0.00     390.4    262.7    0.62   204.5     274.4     197.1     184.6     145.0     145.0     123.6    0.000     0.000     0.000     0.000     0.000    0.62     0.00    0.00      0   -9.90   -9.00       35.9       33.9       32.8       32.2       32.0       32.0       32.0       31.9       31.9       31.9       31.9       31.9        0.0        0.0        0.0        0.0        0.0        0.0        0.0        0.0        0.0        0.0        0.0        0.0      5.1       4.2      24.8      29.3      33.8    387.43
     8     9  2009    69     3     386.5     0.0      0.0    0.0    0.0    0.0      0.4      0.0   -9.90      2.8      2.6     92      0.9      0.9   100      3.7     3.4      94     20.0    0.62      0      0      0      0     45    16.2     8.9      0     0.26      0.9      0.9      0.6   100    31.7     1.937    -9.9    0.000      27        0.00     386.5    258.7    0.62   201.9     276.5     198.7     183.8     144.8     144.8     124.6    0.000     0.000     0.000     0.000     0.000    0.62     0.00    0.00      0   -9.90   -9.00       30.7       34.0       33.0       32.5       32.3       32.1       32.1       32.0       32.0       32.0       32.0       32.0        0.0        0.0        0.0        0.0        0.0        0.0        0.0        0.0        0.0        0.0        0.0        0.0      0.0       3.4      26.0      29.0      32.0    387.43
     9     9  2009    70     3     391.6    15.4      0.0    0.0    9.2    6.2      0.8      0.0   -9.90      2.5      2.5    100      0.8      0.8   100      3.3     3.3     100     18.9    0.63      0      0      0      0     45    16.2     8.9      0     0.26      0.8      0.8      0.6   100    31.5     1.996     1.4    0.028      27        0.01     391.6    263.5    0.63   208.1     278.7     200.2     184.4     145.4     145.4     125.5    0.000     0.000     0.000     0.000     0.000    0.63     0.00    0.00      0   -9.90   -9.00       36.5       33.1       32.5       32.5       32.4       32.2       32.2       32.1       32.1       32.0       32.0       32.0        0.0        0.0        0.0        0.0        0.0        0.0        0.0        0.0        0.0        0.0        0.0        0.0     15.4       3.1      24.4      26.9      29.4    387.43
    10     9  2009    71     3     394.6    15.4      0.0    0.0    8.5    6.9      1.1      0.0   -9.90      3.4      3.4    100      1.1      1.1   100      4.4     4.4     100     19.3    0.63      0      0      0      0     45    16.2     8.9      0     0.26      1.1      1.1      0.8   100    31.3     2.054     1.6    0.033      28        0.01     394.6    266.3    0.63   212.4     280.8     201.7     188.6     148.2     148.2     126.5    0.000     0.000     0.000     0.000     0.000    0.63     0.00    0.00      0   -9.90   -9.00       38.5       33.7       32.8       32.4       32.3       32.2       32.2       32.1       32.1       32.1       32.1       32.0        0.0        0.0        0.0        0.0        0.0        0.0        0.0        0.0        0.0        0.0        0.0        0.0     15.4       4.1      24.5      28.6      32.8    387.43
    11     9  2009    72     3     396.4    12.1      0.0    0.0    7.5    4.6      1.3      0.0   -9.90      3.3      3.3    100      1.0      1.0   100      4.3     4.3     100     20.0    0.64      0      0      0      0     45    16.2     8.9      0     0.26      1.0      1.0      0.7   100    31.2     2.111     1.8    0.038      28        0.01     396.4    268.1    0.64   215.7     282.9     203.3     189.8     149.2     149.2     127.4    0.000     0.000     0.000     0.000     0.000    0.64     0.00    0.00      0   -9.90   -9.00       38.7       34.6       33.3       32.6       32.4       32.3       32.2       32.1       32.1       32.1       32.1       32.1        0.0        0.0        0.0        0.0        0.0        0.0        0.0        0.0        0.0        0.0        0.0        0.0     12.1       4.0      26.0      29.8      33.5    387.43
    12     9  2009    73     3     391.0     0.0      0.0    0.0    0.0    0.0      1.4      0.0   -9.90      3.1      3.1    100      0.9      0.9   100      4.0     4.0     100     19.8    0.64     -9      0      0      0     45    16.0     8.8      0     0.25      0.9      0.9      0.7   100    31.0     2.167     2.0    0.044      28        0.02     391.0    262.6    0.64   211.6     285.0     204.8     190.3     149.8     149.8     128.4    0.000     0.000     0.000     0.000     0.000    0.64     0.00    0.00      0   -9.90   -9.00       31.7       35.1       33.5       32.9       32.6       32.4       32.3       32.2       32.2       32.1       32.1       32.1        0.0        0.0        0.0        0.0        0.0        0.0        0.0        0.0        0.0        0.0        0.0        0.0      0.0       3.7      25.6      29.0      32.4    387.43
    13     9  2009    74     3     385.0     0.0      0.0    0.0    0.0    0.0      1.7      0.0   -9.90      3.5      3.2     92      1.1      1.1   100      4.5     4.3      94     19.8    0.65     -9      0      0      0     45    16.0     8.8      0     0.25      1.1      1.1      0.8   100    30.8     2.222     2.3    0.050      28        0.02     385.0    256.4    0.65   206.9     287.1     206.3     193.2     151.8     151.8     129.3    0.000     0.000     0.000     0.000     0.000    0.65     0.00    0.00      0   -9.90   -9.00       27.4       33.7       32.8       32.8       32.6       32.5       32.3       32.3       32.2       32.2       32.1       32.1        0.0        0.0        0.0        0.0        0.0        0.0        0.0        0.0        0.0        0.0        0.0        0.0      0.0       4.2      25.5      29.6      33.7    387.43
    14     9  2009    75     3     389.0    12.1      0.0    0.0    9.7    2.4      1.9      0.0   -9.90      3.0      3.0    100      0.9      0.9   100      3.9     3.9     100     20.4    0.65     -9      0      0      0     45    16.0     8.8      0     0.25      0.9      0.9      0.6   100    30.6     2.277     2.5    0.058      28        0.02     389.0    260.3    0.65   212.4     289.2     207.8     192.9     151.8     151.8     130.3    0.000     0.000     0.000     0.000     0.000    0.65     0.00    0.00      0   -9.90   -9.00       33.3       32.9       32.4       32.4       32.4       32.4       32.3       32.3       32.2       32.2       32.1       32.1        0.0        0.0        0.0        0.0        0.0        0.0        0.0        0.0        0.0        0.0        0.0        0.0     12.1       3.6      26.7      29.8      32.8    387.43
    15     9  2009    76     3     382.4     0.0      0.0    0.0    0.0    0.0      1.7      0.0   -9.90      3.8      3.8    100      1.2      1.2   100      5.0     5.0     100     19.7    0.66     -9      0      0      0     45    16.0     8.8      0     0.25      1.2      1.2      0.8   100    30.4     2.332     2.8    0.066      28        0.02     382.4    253.9    0.66   207.6     291.3     209.3     197.2     154.7     154.7     131.2    0.000     0.000     0.000     0.000     0.000    0.66     0.00    0.00      0   -9.90   -9.00       27.7       32.7       32.4       32.3       32.2       32.2       32.2       32.2       32.1       32.1       32.1       32.1        0.0        0.0        0.0        0.0        0.0        0.0        0.0        0.0        0.0        0.0        0.0        0.0      0.0       4.6      25.4      30.2      35.0    387.43
    16     9  2009    77     3     388.2    16.4      0.0    0.0   12.0    4.4      1.3      0.0   -9.90      3.7      3.7    100      1.1      1.1   100      4.8     4.8     100     17.3    0.66     -9      0      0      0     45    16.1     8.8      0     0.25      1.1      1.1      0.8   100    30.2     2.386     3.2    0.076      28        0.03     388.2    260.0    0.66   215.3     293.4     210.8     198.3     155.6     155.6     132.2    0.000     0.000     0.000     0.000     0.000    0.66     0.00    0.00      0   -9.90   -9.00       34.9       32.3       32.2       32.1       32.1       32.1       32.1       32.1       32.1       32.1       32.1       32.0        0.0        0.0        0.0        0.0        0.0        0.0        0.0        0.0        0.0        0.0        0.0        0.0     16.4       4.5      20.6      25.9      31.2    387.43
    17     9  2009    78     3     383.4     0.0      0.0    0.0    0.0    0.0      0.9      0.0   -9.90      3.0      3.0    100      0.9      0.9   100      3.9     3.9     100     18.9    0.67     -9      0      0      0     45    16.1     8.8      0     0.25      0.9      0.9      0.7   100    30.0     2.441     3.5    0.086      28        0.03     383.4    255.4    0.67   212.3     295.5     212.3     197.0     155.1     155.1     133.1    0.000     0.000     0.000     0.000     0.000    0.67     0.00    0.00      0   -9.90   -9.00       29.7       32.9       32.4       32.1       32.1       32.1       32.0       32.0       32.0       32.0       32.0       32.0        0.0        0.0        0.0        0.0        0.0        0.0        0.0        0.0        0.0        0.0        0.0        0.0      0.0       3.6      23.8      27.0      30.1    387.43
    18     9  2009    79     3     386.6    10.9      0.0    0.0    8.2    2.7      0.7      0.0   -9.90      3.3      3.3    100      1.0      1.0   100      4.3     4.3     100     19.5    0.67     -9      0      0      0     45    16.1     8.9      0     0.25      1.0      1.0      0.7   100    29.8     2.495     3.9    0.098      28        0.03     386.6    258.7    0.67   217.1     297.5     213.8     199.6     156.9     156.9     134.0    0.000     0.000     0.000     0.000     0.000    0.67     0.00    0.00      0   -9.90   -9.00       33.6       32.5       32.2       32.2       32.1       32.1       32.0       32.0       32.0       32.0       32.0       32.0        0.0        0.0        0.0        0.0        0.0        0.0        0.0        0.0        0.0        0.0        0.0        0.0     10.9       4.0      25.0      28.9      32.8    387.43
    19     9  2009    80     4     382.1     0.0      0.0    0.0    0.0    0.0      0.6      0.0   -9.90      3.0      3.0    100      0.9      0.9   100      3.9     3.9     100     19.8    0.67     -9      0      0      0     45    16.1     8.9      0     0.25      0.9      0.9      0.7   100    29.6     2.549     4.4    0.112      28        0.04     382.1    254.2    0.67   214.1     299.6     215.3     199.8     157.2     157.2     135.0    0.000     0.000     0.000     0.000     0.000    0.67     0.00    0.00      0   -9.90   -9.00       29.0       32.6       32.3       32.1       32.1       32.1       32.0       32.0       32.0       32.0       32.0       32.0        0.0        0.0        0.0        0.0        0.0        0.0        0.0        0.0        0.0        0.0        0.0        0.0      0.0       3.6      25.5      28.4      31.3    387.43
    20     9  2009    81     4     377.1     0.0      0.0    0.0    0.0    0.0      0.6      0.0   -9.90      3.5      3.4     95      1.1      1.1   100      4.6     4.5      96     20.4    0.68     -9      0      0      0     45    16.1     8.9      0     0.25      1.1      1.1      0.8   100    29.4     2.602     4.9    0.127      28        0.04     377.1    249.2    0.68   210.6     301.7     216.7     203.3     159.6     159.6     135.9    0.000     0.000     0.000     0.000     0.000    0.68     0.00    0.00      0   -9.90   -9.00       24.5       32.3       32.1       32.1       32.1       32.0       32.0       32.0       32.0       32.0       32.0       32.0        0.0        0.0        0.0        0.0        0.0        0.0        0.0        0.0        0.0        0.0        0.0        0.0      0.0       4.3      26.7      30.6      34.6    387.43
    21     9  2009    82     4     373.6     0.0      0.0    0.0    0.0    0.0      0.5      0.0   -9.90      3.3      1.9     59      1.0      1.0   100      4.3     3.0      69     20.9    0.68     -9      0      0      0     45    16.1     8.9      0     0.25      1.0      1.0      0.7   100    29.2     2.655     5.4    0.143      28        0.04     373.6    245.8    0.68   208.7     303.7     218.2     203.7     160.2     160.2     136.8    0.000     0.000     0.000     0.000     0.000    0.68     0.00    0.00      0   -9.90   -9.00       21.6       32.1       32.0       32.0       32.0       32.0       32.0       32.0       32.0       32.0       32.0       32.0        0.0        0.0        0.0        0.0        0.0        0.0        0.0        0.0        0.0        0.0        0.0        0.0      0.0       4.0      27.8      31.1      34.5    387.43
    22     9  2009    83     4     375.4     5.9      0.0    0.0    5.8    0.1      0.4      0.0   -9.90      2.8      2.8    100      0.9      0.9   100      3.7     3.7     100     19.4    0.69     -9      0      0      0     45    16.1     8.9      0     0.26      0.9      0.9      0.6   100    29.0     2.708     6.0    0.162      28        0.05     375.4    247.6    0.69   212.0     305.8     219.7     203.3     160.1     160.1     137.7    0.000     0.000     0.000     0.000     0.000    0.69     0.00    0.00      0   -9.90   -9.00       23.7       32.0       32.0       32.0       32.0       32.0       32.0       32.0       32.0       32.0       32.0       31.9        0.0        0.0        0.0        0.0        0.0        0.0        0.0        0.0        0.0        0.0        0.0        0.0      5.9       3.4      24.9      27.6      30.3    387.43
    23     9  2009    84     4     370.6     0.0      0.0    0.0    0.0    0.0      0.3      0.0   -9.90      3.5      3.4     97      1.1      1.1   100      4.6     4.5      98     19.3    0.69     -9      0      0      0     45    16.2     8.9      0     0.26      1.1      1.1      0.8   100    28.7     2.760     6.6    0.182      28        0.06     370.6    242.8    0.69   208.7     307.8     221.1     207.4     162.9     162.9     138.6    0.000     0.000     0.000     0.000     0.000    0.69     0.00    0.00      0   -9.90   -9.00       19.2       32.0       31.9       31.9       31.9       31.9       31.9       31.9       31.9       31.9       31.9       31.9        0.0        0.0        0.0        0.0        0.0        0.0        0.0        0.0        0.0        0.0        0.0        0.0      0.0       4.3      24.6      28.8      33.0    387.43
    24     9  2009    85     4     367.4     0.0      0.0    0.0    0.0    0.0      0.2      0.0   -9.90      3.5      1.9     53      1.1      1.1   100      4.6     3.0      64     20.0    0.70     -9      0      0      0     45    16.2     8.9      0     0.26      1.1      1.1      0.8   100    28.5     2.812     7.2    0.203      28        0.06     367.4    239.7    0.70   207.1     309.8     222.6     208.8     164.0     164.0     139.6    0.000     0.000     0.000     0.000     0.000    0.70     0.00    0.00      0   -9.90   -9.00       17.4       30.8       31.9       31.9       31.9       31.9       31.9       31.9       31.9       31.9       31.9       31.9        0.0        0.0        0.0        0.0        0.0        0.0        0.0        0.0        0.0        0.0        0.0        0.0      0.0       4.3      26.0      29.9      33.8    387.43
    25     9  2009    86     4     379.1    17.6      0.0    0.0   15.6    2.0      0.1      0.0   -9.90      3.0      3.0    100      0.9      0.9   100      3.9     3.9     100     18.9    0.70     -9      0      0      0     45    16.2     8.9      0     0.26      0.9      0.9      0.7   100    28.3     2.863     7.8    0.225      28        0.07     379.1    251.4    0.70   220.3     311.9     224.1     208.0     163.7     163.7     140.5    0.000     0.000     0.000     0.000     0.000    0.70     0.00    0.00      0   -9.90   -9.00       29.1       30.8       31.9       31.9       31.9       31.9       31.9       31.9       31.9       31.9       31.9       31.9        0.0        0.0        0.0        0.0        0.0        0.0        0.0        0.0        0.0        0.0        0.0        0.0     17.6       3.6      23.8      26.9      30.0    387.43
    26     9  2009    87     4     374.3     0.0      0.0    0.0    0.0    0.0      0.1      0.0   -9.90      3.6      3.6    100      1.1      1.1   100      4.7     4.7     100     19.8    0.71     -9      0      0      0     45    16.2     8.9      0     0.26      1.1      1.1      0.8   100    28.0     2.914     8.5    0.247      28        0.07     374.3    246.7    0.71   217.0     313.9     225.5     211.8     166.3     166.3     141.4    0.000     0.000     0.000     0.000     0.000    0.71     0.00    0.00      0   -9.90   -9.00       24.4       30.8       31.9       31.9       31.9       31.9       31.9       31.9       31.9       31.9       31.9       31.9        0.0        0.0        0.0        0.0        0.0        0.0        0.0        0.0        0.0        0.0        0.0        0.0      0.0       4.4      25.5      29.8      34.1    387.43
    27     9  2009    88     4     368.9     0.0      0.0    0.0    0.0    0.0      0.0      0.0   -9.90      4.3      4.0     95      1.3      1.3   100      5.6     5.4      96     19.0    0.71     -9      0      0      0     45    16.2     8.9      0     0.26      1.3      1.3      0.9   100    27.8     2.965     9.1    0.270      28        0.08     368.9    241.3    0.71   213.0     315.9     227.0     215.7     168.9     168.9     142.3    0.000     0.000     0.000     0.000     0.000    0.71     0.00    0.00      0   -9.90   -9.00       19.0       30.8       31.9       31.9       31.9       31.9       31.9       31.9       31.9       31.9       31.9       31.9        0.0        0.0        0.0        0.0        0.0        0.0        0.0        0.0        0.0        0.0        0.0        0.0      0.0       5.2      24.0      29.8      35.5    387.43
    28     9  2009    89     4     365.6     0.0      0.0    0.0    0.0    0.0      0.0      0.0   -9.90      4.3      1.9     45      1.3      1.3   100      5.6     3.3      58     20.5    0.72     -9      0      0      0     45    16.1     8.9      0     0.25      1.3      1.3      0.9   100    27.5     3.015     9.7    0.293      28        0.08     365.6    238.0    0.72   211.2     317.9     228.4     217.1     170.0     170.0     143.2    0.000     0.000     0.000     0.000     0.000    0.72     0.00    0.00      0   -9.90   -9.00       17.1       29.5       31.9       31.9       31.9       31.9       31.9       31.9       31.9       31.9       31.9       31.9        0.0        0.0        0.0        0.0        0.0        0.0        0.0        0.0        0.0        0.0        0.0        0.0      0.0       5.2      27.0      32.2      37.4    387.43
    29     9  2009    90     4     363.3     0.0      0.0    0.0    0.0    0.0      0.0      0.0   -9.90      3.8      1.1     30      1.2      1.2   100      4.9     2.3      47     21.2    0.72     -9      0      0      0     45    16.1     8.8      0     0.25      1.2      1.2      0.8   100    27.3     3.064    10.3    0.317      28        0.09     363.3    235.7    0.72   210.3     319.9     229.9     216.6     169.9     169.9     144.1    0.000     0.000     0.000     0.000     0.000    0.72     0.00    0.00      0   -9.90   -9.00       15.9       28.4       31.9       31.9       31.9       31.9       31.9       31.9       31.9       31.9       31.9       31.9        0.0        0.0        0.0        0.0        0.0        0.0        0.0        0.0        0.0        0.0        0.0        0.0      0.0       4.6      28.4      32.5      36.6    387.43
[...]
    19    10  2019   110     4     330.7     0.0      0.0    0.0    0.0    0.0      0.0      0.0   -9.90      3.7      0.2      6      0.8      0.8   100      4.6     1.0      22     20.5    0.80     -9      0      0      0     45    14.1     7.8      0     0.18      0.8      0.8      0.6   100    24.0     3.808    22.8    0.868      25        0.28     330.7    203.1    0.80   203.1     355.2     255.2     239.7     188.2     188.2     160.0    0.000     0.000     0.000     0.000     0.000    0.80     0.00    0.00      0   -9.90   -9.00       12.7       19.5       19.9       23.4       31.9       31.9       31.9       31.9       31.9       31.9       31.9       31.9        0.0        0.0        0.0        0.0        0.0        0.0        0.0        0.0        0.0        0.0        0.0        0.0      0.0       4.4      27.0      30.6      34.2    410.21
    20    10  2019   111     4     329.6     0.0      0.0    0.0    0.0    0.0      0.0      0.0   -9.90      4.0      0.2      5      0.8      0.8   100      4.9     1.1      22     20.4    0.80     -9      0      0      0     45    14.0     7.7      0     0.18      0.8      0.8      0.6   100    23.7     3.839    23.4    0.899      25        0.29     329.6    202.0    0.80   202.0     355.2     255.2     240.8     188.9     188.9     160.0    0.000     0.000     0.000     0.000     0.000    0.80     0.00    0.00      0   -9.90   -9.00       12.5       19.5       19.9       22.5       31.9       31.9       31.9       31.9       31.9       31.9       31.9       31.9        0.0        0.0        0.0        0.0        0.0        0.0        0.0        0.0        0.0        0.0        0.0        0.0      0.0       4.7      26.7      30.8      34.9    410.21
    21    10  2019   112     4     328.4     0.0      0.0    0.0    0.0    0.0      0.0      0.0   -9.90      4.9      0.3      5      1.0      1.0   100      5.9     1.3      22     18.4    0.80     -9      0      0      0     45    13.8     7.6      0     0.18      1.0      1.0      0.7   100    23.5     3.869    24.0    0.930      25        0.30     328.4    200.8    0.80   200.8     355.2     255.2     244.4     191.1     191.1     160.0    0.000     0.000     0.000     0.000     0.000    0.80     0.00    0.00      0   -9.90   -9.00       12.2       19.5       19.9       21.5       31.9       31.9       31.9       31.9       31.9       31.9       31.9       31.9        0.0        0.0        0.0        0.0        0.0        0.0        0.0        0.0        0.0        0.0        0.0        0.0      0.0       5.7      22.7      29.1      35.6    410.21
    22    10  2019   113     4     327.2     0.0      0.0    0.0    0.0    0.0      0.0      0.0   -9.90      4.8      0.2      5      1.0      1.0   100      5.7     1.2      21     19.0    0.80     -9      0      0      0     45    13.6     7.5      0     0.17      1.0      1.0      0.7   100    23.3     3.897    24.7    0.961      25        0.31     327.2    199.6    0.80   199.6     355.2     255.2     244.0     190.8     190.8     160.0    0.000     0.000     0.000     0.000     0.000    0.80     0.00    0.00      0   -9.90   -9.00       12.0       19.5       19.9       20.5       31.9       31.9       31.9       31.9       31.9       31.9       31.9       31.9        0.0        0.0        0.0        0.0        0.0        0.0        0.0        0.0        0.0        0.0        0.0        0.0      0.0       5.6      24.0      30.1      36.2    410.21
    23    10  2019   114     4     326.1     0.0      0.0    0.0    0.0    0.0      0.0      0.0   -9.90      4.5      0.2      5      0.9      0.9   100      5.4     1.1      20     19.0    0.80     -9      0      0      0     45    13.4     7.3      0     0.17      0.9      0.9      0.6   100    23.1     3.925    25.3    0.992      25        0.32     326.1    198.5    0.80   198.5     355.2     255.2     242.9     190.2     190.2     160.0    0.000     0.000     0.000     0.000     0.000    0.80     0.00    0.00      0   -9.90   -9.00       11.8       19.5       19.9       19.7       31.9       31.9       31.9       31.9       31.9       31.9       31.9       31.9        0.0        0.0        0.0        0.0        0.0        0.0        0.0        0.0        0.0        0.0        0.0        0.0      0.0       5.3      24.0      29.5      35.0    410.21
    24    10  2019   115     4     325.1     0.0      0.0    0.0    0.0    0.0      0.0      0.0   -9.90      4.3      0.2      5      0.8      0.8   100      5.1     1.0      20     19.0    0.80     -9      0      0      0     45    13.1     7.2      0     0.16      0.8      0.8      0.6   100    22.9     3.951    25.9    1.023      25        0.33     325.1    197.5    0.80   197.5     355.2     255.2     241.9     189.5     189.5     160.0    0.000     0.000     0.000     0.000     0.000    0.80     0.00    0.00      0   -9.90   -9.00       11.6       19.5       19.9       19.7       31.1       31.9       31.9       31.9       31.9       31.9       31.9       31.9        0.0        0.0        0.0        0.0        0.0        0.0        0.0        0.0        0.0        0.0        0.0        0.0      0.0       5.0      24.0      29.1      34.2    410.21
    25    10  2019   116     4     324.2     0.0      0.0    0.0    0.0    0.0      0.0      0.0   -9.90      4.0      0.2      5      0.7      0.7   100      4.7     0.9      19     19.5    0.80     -9      0      0      0     45    12.8     7.0      0     0.15      0.7      0.7      0.5   100    22.7     3.975    26.5    1.055      25        0.34     324.2    196.6    0.80   196.6     355.2     255.2     240.4     188.6     188.6     160.0    0.000     0.000     0.000     0.000     0.000    0.80     0.00    0.00      0   -9.90   -9.00       11.4       19.5       19.9       19.7       30.4       31.9       31.9       31.9       31.9       31.9       31.9       31.9        0.0        0.0        0.0        0.0        0.0        0.0        0.0        0.0        0.0        0.0        0.0        0.0      0.0       4.6      25.0      29.2      33.4    410.21
    26    10  2019   117     4     323.3     0.0      0.0    0.0    0.0    0.0      0.0      0.0   -9.90      4.1      0.2      5      0.7      0.7   100      4.8     0.9      18     20.0    0.80     -9      0      0      0     45    12.4     6.8      0     0.14      0.7      0.7      0.5   100    22.5     3.999    27.2    1.086      25        0.34     323.3    195.7    0.80   195.7     355.2     255.2     241.2     189.1     189.1     160.0    0.000     0.000     0.000     0.000     0.000    0.80     0.00    0.00      0   -9.90   -9.00       11.2       19.5       19.9       19.7       29.7       31.9       31.9       31.9       31.9       31.9       31.9       31.9        0.0        0.0        0.0        0.0        0.0        0.0        0.0        0.0        0.0        0.0        0.0        0.0      0.0       4.8      26.0      30.4      34.8    410.21
    27    10  2019   118     4     322.5     0.0      0.0    0.0    0.0    0.0      0.0      0.0   -9.90      4.0      0.2      4      0.6      0.6   100      4.6     0.8      17     20.0    0.80     -9      0      0      0     45    12.0     6.6      0     0.14      0.6      0.6      0.4   100    22.3     4.020    27.8    1.117      25        0.35     322.5    194.9    0.80   194.9     355.2     255.2     240.4     188.6     188.6     160.0    0.000     0.000     0.000     0.000     0.000    0.80     0.00    0.00      0   -9.90   -9.00       11.0       19.5       19.9       19.7       29.1       31.9       31.9       31.9       31.9       31.9       31.9       31.9        0.0        0.0        0.0        0.0        0.0        0.0        0.0        0.0        0.0        0.0        0.0        0.0      0.0       4.6      26.0      30.2      34.4    410.21
    28    10  2019   119     4     321.6     0.0      0.0    0.0    0.0    0.0      0.0      0.0   -9.90      4.8      0.2      4      0.7      0.7   100      5.5     0.9      16     18.2    0.80     -9      0      0      0     45    11.6     6.4      0     0.13      0.7      0.7      0.5   100    22.1     4.040    28.4    1.147      25        0.36     321.6    194.0    0.80   194.0     355.2     255.2     243.7     190.6     190.6     160.0    0.000     0.000     0.000     0.000     0.000    0.80     0.00    0.00      0   -9.90   -9.00       10.8       19.5       19.9       19.7       28.4       31.9       31.9       31.9       31.9       31.9       31.9       31.9        0.0        0.0        0.0        0.0        0.0        0.0        0.0        0.0        0.0        0.0        0.0        0.0      0.0       5.5      22.4      28.8      35.1    410.21
    29    10  2019   120     4     320.7     0.0      0.0    0.0    0.0    0.0      0.0      0.0   -9.90      5.1      0.2      4      0.7      0.7   100      5.8     0.9      15     17.3    0.80     -9      0      0      0     45    11.1     6.1      0     0.11      0.7      0.7      0.5   100    22.0     4.059    29.0    1.178      25        0.37     320.7    193.1    0.80   193.1     355.2     255.2     245.1     191.5     191.5     160.0    0.000     0.000     0.000     0.000     0.000    0.80     0.00    0.00      0   -9.90   -9.00       10.6       19.5       19.9       19.7       27.7       31.9       31.9       31.9       31.9       31.9       31.9       31.9        0.0        0.0        0.0        0.0        0.0        0.0        0.0        0.0        0.0        0.0        0.0        0.0      0.0       5.9      20.5      28.1      35.7    410.21
    30    10  2019   121     4     320.1     0.0      0.0    0.0    0.0    0.0      0.0      0.0   -9.90      4.3      0.2      4      0.5      0.5   100      4.8     0.7      14     20.1    0.80     -9      0      0      0     45    10.5     5.8      0     0.10      0.5      0.5      0.4   100    21.8     4.075    29.6    1.208      25        0.38     320.1    192.5    0.80   192.5     355.2     255.2     241.5     189.3     189.3     160.0    0.000     0.000     0.000     0.000     0.000    0.80     0.00    0.00      0   -9.90   -9.00       10.4       19.5       19.9       19.7       27.2       31.9       31.9       31.9       31.9       31.9       31.9       31.9        0.0        0.0        0.0        0.0        0.0        0.0        0.0        0.0        0.0        0.0        0.0        0.0      0.0       4.9      26.2      30.9      35.5    410.21
    31    10  2019   122     4     319.3     0.0      0.0    0.0    0.0    0.0      0.0      0.0   -9.90      4.9      0.2      4      0.5      0.5   100      5.4     0.7      13     18.0    0.80     -9      0      0      0     45     9.8     5.4      0     0.09      0.5      0.5      0.4   100    21.7     4.089    30.3    1.237      25        0.39     319.3    191.7    0.80   191.7     355.2     255.2     244.0     190.8     190.8     160.0    0.000     0.000     0.000     0.000     0.000    0.80     0.00    0.00      0   -9.90   -9.00       10.2       19.5       19.9       19.7       26.7       31.9       31.9       31.9       31.9       31.9       31.9       31.9        0.0        0.0        0.0        0.0        0.0        0.0        0.0        0.0        0.0        0.0        0.0        0.0      0.0       5.6      22.0      28.6      35.2    410.21
     1    11  2019   123     4     318.7     0.0      0.0    0.0    0.0    0.0      0.0      0.0   -9.90      5.1      0.2      4      0.4      0.4   100      5.6     0.6      12     18.0    0.80     -9      0      0      0     45     9.0     5.0      0     0.08      0.4      0.4      0.3   100    21.6     4.101    30.9    1.267      25        0.40     318.7    191.1    0.80   191.1     355.2     255.2     244.7     191.3     191.3     160.0    0.000     0.000     0.000     0.000     0.000    0.80     0.00    0.00      0   -9.90   -9.00       10.0       19.5       19.9       19.7       26.3       31.9       31.9       31.9       31.9       31.9       31.9       31.9        0.0        0.0        0.0        0.0        0.0        0.0        0.0        0.0        0.0        0.0        0.0        0.0      0.0       5.8      22.0      29.1      36.2    410.21
     2    11  2019   124     4     318.1     0.0      0.0    0.0    0.0    0.0      0.0      0.0   -9.90      5.4      0.2      4      0.4      0.4    97      5.7     0.6      10     17.7    0.80     -9      3      0      0     45     8.1     4.5      0     0.06      0.4      0.4      0.3    97    21.5     4.111    31.5    1.295      25        0.40     318.1    190.5    0.80   190.5     355.2     255.2     245.5     191.7     191.7     160.0    0.000     0.000     0.000     0.000     0.000    0.80     0.00    0.00      0   -9.90   -9.00       10.0       19.4       19.9       19.7       25.9       31.9       31.9       31.9       31.9       31.9       31.9       31.9        0.0        0.0        0.0        0.0        0.0        0.0        0.0        0.0        0.0        0.0        0.0        0.0      0.0       6.0      21.4      29.0      36.6    410.21
     3    11  2019   125     4     317.7     0.0      0.0    0.0    0.0    0.0      0.0      0.0   -9.90      4.8      0.2      4      0.3      0.3   100      5.0     0.4       9     19.8    0.80     -9      0      0      0     45     7.1     3.9      0     0.05      0.3      0.3      0.2   100    21.4     4.118    32.1    1.323      25        0.41     317.7    190.1    0.80   190.1     355.2     255.2     242.9     190.2     190.2     160.0    0.000     0.000     0.000     0.000     0.000    0.80     0.00    0.00      0   -9.90   -9.00       10.0       19.2       19.9       19.7       25.6       31.9       31.9       31.9       31.9       31.9       31.9       31.9        0.0        0.0        0.0        0.0        0.0        0.0        0.0        0.0        0.0        0.0        0.0        0.0      0.0       5.3      25.6      31.1      36.6    410.21
     4    11  2019   126     4     317.3     0.0      0.0    0.0    0.0    0.0      0.0      0.0   -9.90      5.3      0.2      4      0.2      0.2    96      5.5     0.4       7     19.8    0.80     -9      4      0      0     45     5.9     3.3      0     0.03      0.2      0.2      0.1    96    21.4     4.123    32.8    1.351      25        0.42     317.3    189.7    0.80   189.7     355.2     255.2     244.7     191.3     191.3     160.0    0.000     0.000     0.000     0.000     0.000    0.80     0.00    0.00      0   -9.90   -9.00       10.0       19.0       19.9       19.7       25.5       31.9       31.9       31.9       31.9       31.9       31.9       31.9        0.0        0.0        0.0        0.0        0.0        0.0        0.0        0.0        0.0        0.0        0.0        0.0      0.0       5.8      25.5      31.8      38.1    410.21
     5    11  2019   127     4     317.0     0.0      0.0    0.0    0.0    0.0      0.0      0.0   -9.90      5.1      0.2      4      0.1      0.1    97      5.2     0.3       6     19.0    0.80     -9      3      0      0     45     4.6     2.5      0     0.02      0.1      0.1      0.1    97    21.4     4.126    33.0    1.362      25        0.42     317.0    189.4    0.80   189.4     355.2     255.2     243.3     190.4     190.4     160.0    0.000     0.000     0.000     0.000     0.000    0.80     0.00    0.00      0   -9.90   -9.00       10.0       18.8       19.9       19.7       25.3       31.9       31.9       31.9       31.9       31.9       31.9       31.9        0.0        0.0        0.0        0.0        0.0        0.0        0.0        0.0        0.0        0.0        0.0        0.0      0.0       5.4      24.0      30.0      36.0    410.21
     6    11  2019   128     4     316.8     0.0      0.0    0.0    0.0    0.0      0.0      0.0   -9.90      5.0      0.2      3      0.0      0.0    98      5.1     0.2       4     20.1    0.80     -9      2      0      0     45     3.1     1.7      0     0.01      0.0      0.0      0.0    98    21.3     4.128    33.0    1.362      25        0.42     316.8    189.2    0.80   189.2     355.2     255.2     242.6     190.0     190.0     160.0    0.000     0.000     0.000     0.000     0.000    0.80     0.00    0.00      0   -9.90   -9.00       10.0       18.6       19.9       19.7       25.3       31.9       31.9       31.9       31.9       31.9       31.9       31.9        0.0        0.0        0.0        0.0        0.0        0.0        0.0        0.0        0.0        0.0        0.0        0.0      0.0       5.2      26.2      31.4      36.6    410.21
     7    11  2019   129     4     316.6     0.0      0.0    0.0    0.0    0.0      0.0      0.0   -9.90      6.4      0.2      3      0.0      0.0    89      6.4     0.2       4     15.4    0.80     -9     11      0      0     45     1.4     0.7      0     0.00      0.0      0.0      0.0    89    21.3     4.128    33.0    1.362      25        0.42     316.6    189.0    0.80   189.0     355.2     255.2     246.9     192.6     192.6     160.0    0.000     0.000     0.000     0.000     0.000    0.80     0.00    0.00      0   -9.90   -9.00       10.0       18.4       19.9       19.7       25.3       31.9       31.9       31.9       31.9       31.9       31.9       31.9        0.0        0.0        0.0        0.0        0.0        0.0        0.0        0.0        0.0        0.0        0.0        0.0      0.0       6.4      16.8      26.7      36.6    410.21
     8    11  2019    -9     0     316.4     0.0      0.0    0.0    0.0    0.0      0.0      0.0   -9.90      5.9      0.2      3      0.0      0.0   100      5.9     0.2       3     18.0    0.80     -9     -9      0      0     -9     0.0     0.0      0    -9.00      0.0      0.0      0.0   100    21.3     4.128    33.0    1.362      25        0.42     316.4    188.8    0.80   188.8     355.2     255.2     245.1     191.5     191.5     160.0    0.000     0.000     0.000     0.000     0.000    0.80     0.00    0.00      0   -9.90   -9.00       10.0       18.2       19.9       19.7       25.3       31.9       31.9       31.9       31.9       31.9       31.9       31.9        0.0        0.0        0.0        0.0        0.0        0.0        0.0        0.0        0.0        0.0        0.0        0.0      0.0       5.9      22.0      29.5      37.0    410.21
     9    11  2019    -9     0     316.2     0.0      0.0    0.0    0.0    0.0      0.0      0.0   -9.90      5.5      0.2      3      0.0      0.0   100      5.5     0.2       3     18.7    0.80     -9     -9      0      0     -9     0.0     0.0      0    -9.00      0.0      0.0      0.0   100    21.3     4.128    33.0    1.362      25        0.42     316.2    188.6    0.80   188.6     355.2     255.2     245.1     190.6     191.5     160.0    0.000     0.000     0.000     0.000     0.000    0.80     0.00    0.00      0   -9.90   -9.00       10.0       18.1       19.9       19.7       25.3       31.9       31.9       31.9       31.9       31.9       31.9       31.9        0.0        0.0        0.0        0.0        0.0        0.0        0.0        0.0        0.0        0.0        0.0        0.0      0.0       5.5      23.4      29.9      36.4    410.21
    10    11  2019    -9     0     316.0     0.0      0.0    0.0    0.0    0.0      0.0      0.0   -9.90      5.6      0.2      3      0.0      0.0   100      5.6     0.2       3     18.0    0.80     -9     -9      0      0     -9     0.0     0.0      0    -9.00      0.0      0.0      0.0   100    21.3     4.128    33.0    1.362      25        0.42     316.0    188.4    0.80   188.4     355.2     255.2     245.1     190.8     191.5     160.0    0.000     0.000     0.000     0.000     0.000    0.80     0.00    0.00      0   -9.90   -9.00       10.0       17.9       19.9       19.7       25.3       31.9       31.9       31.9       31.9       31.9       31.9       31.9        0.0        0.0        0.0        0.0        0.0        0.0        0.0        0.0        0.0        0.0        0.0        0.0      0.0       5.6      22.0      28.9      35.8    410.21
