AquaCrop 6.0 (March 2017) - Output created on (date) : 14/07/2022   at (time) : 11:09:20

   Run:   1
   Day Month  Year   DAP Stage   WC(1.20)   Rain     Irri   Surf   Infilt   RO    Drain       CR    Zgwt       Ex       E     E/Ex     Trx       Tr  Tr/Trx    ETx      ET  ET/ETx      GD       Z     StExp  StSto  StSen StSalt StWeed   CC      CCw     StTr  Kc(Tr)     Trx       Tr      TrW  Tr/Trx   WP    Biomass     HI  YieldPart  Brelative    WPet  WC(1.20) Wr(0.80)     Z       Wr    Wr(SAT)    Wr(FC)   Wr(exp)   Wr(sto)   Wr(sen)   Wr(PWP)    SaltIn    SaltOut   SaltUp   Salt(1.20)  SaltZ     Z       ECe    ECsw   StSalt  Zgwt    ECgw       WC01       WC 2       WC 3       WC 4       WC 5       WC 6       WC 7       WC 8       WC 9       WC10       WC11       WC12      ECe01      ECe 2      ECe 3      ECe 4      ECe 5      ECe 6      ECe 7      ECe 8      ECe 9      ECe10      ECe11      ECe12     Rain       ETo      Tmin      Tavg      Tmax      CO2
                                      mm      mm       mm     mm     mm     mm       mm       mm      m        mm       mm     %        mm       mm    %        mm      mm       %    °C-day     m       %      %      %      %      %      %       %       %       -        mm       mm       mm    %     g/m2    ton/ha      %    ton/ha       %       kg/m3      mm       mm       m       mm        mm        mm        mm        mm        mm         mm    ton/ha    ton/ha    ton/ha    ton/ha    ton/ha     m      dS/m    dS/m      %     m      dS/m       0.05       0.15       0.25       0.35       0.45       0.55       0.65       0.75       0.85       0.95       1.05       1.15       0.05       0.15       0.25       0.35       0.45       0.55       0.65       0.75       0.85       0.95       1.05       1.15       mm        mm       °C        °C        °C       ppm
     2     7  2009     1     1     382.9     5.6      0.0    0.0    4.5    1.1      0.0      0.0   -9.90      4.4      4.4    100      0.0      0.0   100      4.4     4.4     100     18.0    0.30     -9     -9     -9      0     -9     0.0     0.0      0    -9.00      0.0      0.0      0.0   100     0.0     0.000    -9.9    0.000      -9        0.00     382.9    255.3    0.30    95.8     133.2      95.7      90.7      70.2      71.1      60.0    0.000     0.000     0.000     0.000     0.000    0.30     0.00    0.00      0   -9.90   -9.00       32.0       31.9       31.9       31.9       31.9       31.9       31.9       31.9       31.9       31.9       31.9       31.9        0.0        0.0        0.0        0.0        0.0        0.0        0.0        0.0        0.0        0.0        0.0        0.0      5.6       4.0      22.0      28.4      34.8    387.43
     3     7  2009     2     1     379.4     0.0      0.0    0.0    0.0    0.0      0.0      0.0   -9.90      4.3      3.5     81      0.0      0.0   100      4.3     3.5      81     19.1    0.30     -9     -9     -9      0     -9     0.0     0.0      0    -9.00      0.0      0.0      0.0   100     0.0     0.000    -9.9    0.000      -9        0.00     379.4    251.8    0.30    92.3     133.2      95.7      90.7      70.2      71.1      60.0    0.000     0.000     0.000     0.000     0.000    0.30     0.00    0.00      0   -9.90   -9.00       28.5       31.9       31.9       31.9       31.9       31.9       31.9       31.9       31.9       31.9       31.9       31.9        0.0        0.0        0.0        0.0        0.0        0.0        0.0        0.0        0.0        0.0        0.0        0.0      0.0       3.9      24.1      29.7      35.3    387.43
     4     7  2009     3     1     377.0     0.0      0.0    0.0    0.0    0.0      0.0      0.0   -9.90      4.3      2.4     56      0.0      0.0   100      4.3     2.4      56     20.2    0.30     -9     -9     -9      0     -9     0.0     0.0      0    -9.00      0.0      0.0      0.0   100     0.0     0.000    -9.9    0.000      -9        0.00     377.0    249.4    0.30    89.9     133.2      95.7      90.7      70.2      71.1      60.0    0.000     0.000     0.000     0.000     0.000    0.30     0.00    0.00      0   -9.90   -9.00       26.1       31.9       31.9       31.9       31.9       31.9       31.9       31.9       31.9       31.9       31.9       31.9        0.0        0.0        0.0        0.0        0.0        0.0        0.0        0.0        0.0        0.0        0.0        0.0      0.0       3.9      26.4      31.9      37.5    387.43
     5     7  2009     4     1     382.5     8.4      0.0    0.0    7.7    0.7      0.0      0.0   -9.90      2.2      2.2    100      0.0      0.0   100      2.2     2.2     100     19.1    0.30     -9     -9     -9      0     -9     0.0     0.0      0    -9.00      0.0      0.0      0.0   100     0.0     0.000    -9.9    0.000      -9        0.00     382.5    254.9    0.30    95.4     133.2      95.7      90.7      68.6      71.1      60.0    0.000     0.000     0.000     0.000     0.000    0.30     0.00    0.00      0   -9.90   -9.00       31.5       31.9       31.9       31.9       31.9       31.9       31.9       31.9       31.9       31.9       31.9       31.9        0.0        0.0        0.0        0.0        0.0        0.0        0.0        0.0        0.0        0.0        0.0        0.0      8.4       2.0      25.5      27.1      28.7    387.43
     6     7  2009     5     1     378.4     0.0      0.0    0.0    0.0    0.0      0.0      0.0   -9.90      4.1      4.1    100      0.0      0.0   100      4.1     4.1     100     20.0    0.30     -9     -9     -9      0     -9     0.0     0.0      0    -9.00      0.0      0.0      0.0   100     0.0     0.000    -9.9    0.000      -9        0.00     378.4    250.8    0.30    91.3     133.2      95.7      90.7      70.0      71.1      60.0    0.000     0.000     0.000     0.000     0.000    0.30     0.00    0.00      0   -9.90   -9.00       27.5       31.9       31.9       31.9       31.9       31.9       31.9       31.9       31.9       31.9       31.9       31.9        0.0        0.0        0.0        0.0        0.0        0.0        0.0        0.0        0.0        0.0        0.0        0.0      0.0       3.7      26.0      31.2      36.4    387.43
     7     7  2009     6     1     374.8     0.0      0.0    0.0    0.0    0.0      0.0      0.0   -9.90      4.0      3.5     89      0.0      0.0   100      4.0     3.5      89     19.6    0.30     -9     -9     -9      0     -9     0.0     0.0      0    -9.00      0.0      0.0      0.0   100     0.0     0.000    -9.9    0.000      -9        0.00     374.8    247.2    0.30    87.7     133.2      95.7      90.7      69.9      71.1      60.0    0.000     0.000     0.000     0.000     0.000    0.30     0.00    0.00      0   -9.90   -9.00       23.9       31.9       31.9       31.9       31.9       31.9       31.9       31.9       31.9       31.9       31.9       31.9        0.0        0.0        0.0        0.0        0.0        0.0        0.0        0.0        0.0        0.0        0.0        0.0      0.0       3.6      25.2      30.0      34.9    387.43
     8     7  2009     7     2     372.6     0.0      0.0    0.0    0.0    0.0      0.0      0.0   -9.90      3.6      2.2     60      0.0      0.0   100      3.6     2.2      60     20.1    0.30     -9      0      0      0     45     0.2     0.1      0     0.00      0.0      0.0      0.0   100    34.2     0.001    -9.9    0.000      74        0.00     372.6    245.0    0.30    85.5     133.2      95.7      88.4      69.7      69.7      60.0    0.000     0.000     0.000     0.000     0.000    0.30     0.00    0.00      0   -9.90   -9.00       21.7       31.9       31.9       31.9       31.9       31.9       31.9       31.9       31.9       31.9       31.9       31.9        0.0        0.0        0.0        0.0        0.0        0.0        0.0        0.0        0.0        0.0        0.0        0.0      0.0       3.3      26.2      30.2      34.2    387.43
     9     7  2009     8     2     370.7     0.0      0.0    0.0    0.0    0.0      0.0      0.0   -9.90      4.3      1.9     44      0.0      0.0   100      4.3     1.9      44     20.5    0.30     -9      0      0      0     45     0.2     0.1      0     0.00      0.0      0.0      0.0   100    34.2     0.002    -9.9    0.000      69        0.00     370.7    243.1    0.30    83.6     133.2      95.7      89.2      70.2      70.2      60.0    0.000     0.000     0.000     0.000     0.000    0.30     0.00    0.00      0   -9.90   -9.00       19.8       31.9       31.9       31.9       31.9       31.9       31.9       31.9       31.9       31.9       31.9       31.9        0.0        0.0        0.0        0.0        0.0        0.0        0.0        0.0        0.0        0.0        0.0        0.0      0.0       3.9      27.0      32.1      37.3    387.43
    10     7  2009     9     2     369.4     0.0      0.0    0.0    0.0    0.0      0.0      0.0   -9.90      3.8      1.3     34      0.0      0.0   100      3.8     1.3      35     21.0    0.30     -9      0      0      0     45     0.3     0.1      0     0.00      0.0      0.0      0.0   100    34.2     0.003    -9.9    0.000      66        0.00     369.4    241.8    0.30    82.3     133.2      95.7      88.7      69.8      69.8      60.0    0.000     0.000     0.000     0.000     0.000    0.30     0.00    0.00      0   -9.90   -9.00       18.5       31.9       31.9       31.9       31.9       31.9       31.9       31.9       31.9       31.9       31.9       31.9        0.0        0.0        0.0        0.0        0.0        0.0        0.0        0.0        0.0        0.0        0.0        0.0      0.0       3.5      28.0      32.3      36.5    387.43
    11     7  2009    10     2     368.5     2.9      0.0    0.0    2.9    0.0      0.0      0.0   -9.90      4.6      3.8     82      0.0      0.0   100      4.6     3.8      82     19.0    0.30      5      0      0      0     45     0.3     0.2      0     0.01      0.0      0.0      0.0   100    34.2     0.005    -9.9    0.000      64        0.00     368.5    240.9    0.30    81.4     133.2      95.7      89.6      70.4      70.4      60.0    0.000     0.000     0.000     0.000     0.000    0.30     0.00    0.00      0   -9.90   -9.00       17.7       31.8       31.9       31.9       31.9       31.9       31.9       31.9       31.9       31.9       31.9       31.9        0.0        0.0        0.0        0.0        0.0        0.0        0.0        0.0        0.0        0.0        0.0        0.0      2.9       4.2      24.0      30.3      36.6    387.43
    12     7  2009    11     2     367.9     2.9      0.0    0.0    2.9    0.0      0.0      0.0   -9.90      4.3      3.5     82      0.0      0.0   100      4.3     3.5      82     20.5    0.30      6      0      0      0     45     0.3     0.2      0     0.01      0.0      0.0      0.0   100    34.2     0.006    -9.9    0.000      61        0.00     367.9    240.3    0.30    80.8     133.2      95.7      89.2      70.2      70.2      60.0    0.000     0.000     0.000     0.000     0.000    0.30     0.00    0.00      0   -9.90   -9.00       17.1       31.8       31.9       31.9       31.9       31.9       31.9       31.9       31.9       31.9       31.9       31.9        0.0        0.0        0.0        0.0        0.0        0.0        0.0        0.0        0.0        0.0        0.0        0.0      2.9       3.9      27.0      32.3      37.6    387.43
    13     7  2009    12     2     372.6     8.6      0.0    0.0    8.4    0.2      0.0      0.0   -9.90      3.6      3.6    100      0.0      0.0   100      3.6     3.6     100     19.5    0.30      0      0      0      0     45     0.4     0.2      0     0.01      0.0      0.0      0.0   100    34.2     0.008    -9.9    0.000      59        0.00     372.6    245.0    0.30    85.5     133.2      95.7      88.4      69.7      69.7      60.0    0.000     0.000     0.000     0.000     0.000    0.30     0.00    0.00      0   -9.90   -9.00       21.8       31.8       31.9       31.9       31.9       31.9       31.9       31.9       31.9       31.9       31.9       31.9        0.0        0.0        0.0        0.0        0.0        0.0        0.0        0.0        0.0        0.0        0.0        0.0      8.6       3.3      25.0      29.4      33.8    387.43
    14     7  2009    13     2     371.5     2.9      0.0    0.0    2.9    0.0      0.0      0.0   -9.90      4.2      4.0     97      0.0      0.0   100      4.2     4.0      97     19.8    0.31      0      0      0      0     45     0.4     0.2      0     0.01      0.0      0.0      0.0   100    34.2     0.010    -9.9    0.000      57        0.00     371.5    243.9    0.31    86.5     136.2      97.8      91.1      71.6      71.6      61.3    0.000     0.000     0.000     0.000     0.000    0.31     0.00    0.00      0   -9.90   -9.00       20.7       31.8       31.9       31.9       31.9       31.9       31.9       31.9       31.9       31.9       31.9       31.9        0.0        0.0        0.0        0.0        0.0        0.0        0.0        0.0        0.0        0.0        0.0        0.0      2.9       3.8      25.5      30.6      35.7    387.43
    15     7  2009    14     2     373.1     5.7      0.0    0.0    5.7    0.0      0.0      0.0   -9.90      4.0      4.0    100      0.0      0.0   100      4.1     4.1     100     18.3    0.31      0      0      0      0     45     0.4     0.2      0     0.01      0.0      0.0      0.0   100    34.2     0.012    -9.9    0.000      54        0.00     373.1    245.5    0.31    90.4     139.4     100.2      93.1      73.3      73.3      62.8    0.000     0.000     0.000     0.000     0.000    0.31     0.00    0.00      0   -9.90   -9.00       22.2       31.8       31.9       31.9       31.9       31.9       31.9       31.9       31.9       31.9       31.9       31.9        0.0        0.0        0.0        0.0        0.0        0.0        0.0        0.0        0.0        0.0        0.0        0.0      5.7       3.7      22.6      27.9      33.1    387.43
    16     7  2009    15     2     370.7     1.6      0.0    0.0    1.6    0.0      0.0      0.0   -9.90      4.5      3.9     88      0.0      0.0   100      4.5     4.0      88     18.6    0.32      1      0      0      0     45     0.5     0.3      0     0.01      0.0      0.0      0.0   100    34.2     0.014    -9.9    0.000      52        0.00     370.7    243.1    0.32    90.4     142.6     102.5      95.8      75.3      75.3      64.2    0.000     0.000     0.000     0.000     0.000    0.32     0.00    0.00      0   -9.90   -9.00       19.9       31.8       31.9       31.9       31.9       31.9       31.9       31.9       31.9       31.9       31.9       31.9        0.0        0.0        0.0        0.0        0.0        0.0        0.0        0.0        0.0        0.0        0.0        0.0      1.6       4.1      23.3      29.4      35.5    387.43
    17     7  2009    16     2     368.3     0.0      0.0    0.0    0.0    0.0      0.0      0.0   -9.90      4.2      2.3     54      0.0      0.0   100      4.3     2.3      54     19.5    0.33      5      0      0      0     45     0.5     0.3      0     0.01      0.0      0.0      0.0   100    34.2     0.016    -9.9    0.000      50        0.00     368.3    240.7    0.33    90.3     145.8     104.7      97.6      76.8      76.8      65.7    0.000     0.000     0.000     0.000     0.000    0.33     0.00    0.00      0   -9.90   -9.00       17.6       31.7       31.9       31.9       31.9       31.9       31.9       31.9       31.9       31.9       31.9       31.9        0.0        0.0        0.0        0.0        0.0        0.0        0.0        0.0        0.0        0.0        0.0        0.0      0.0       3.9      25.0      30.4      35.7    387.43
    18     7  2009    17     2     366.8     0.0      0.0    0.0    0.0    0.0      0.0      0.0   -9.90      4.0      1.5     38      0.0      0.0   100      4.1     1.6      39     19.3    0.34      8      0      0      0     45     0.6     0.3      0     0.01      0.0      0.0      0.0   100    34.2     0.019    -9.9    0.000      48        0.00     366.8    239.2    0.34    90.9     148.8     106.9      99.4      78.2      78.2      67.0    0.000     0.000     0.000     0.000     0.000    0.34     0.00    0.00      0   -9.90   -9.00       16.1       31.7       31.9       31.9       31.9       31.9       31.9       31.9       31.9       31.9       31.9       31.9        0.0        0.0        0.0        0.0        0.0        0.0        0.0        0.0        0.0        0.0        0.0        0.0      0.0       3.7      24.6      29.6      34.6    387.43
    19     7  2009    18     2     365.7     0.0      0.0    0.0    0.0    0.0      0.0      0.0   -9.90      3.4      1.0     30      0.0      0.0   100      3.4     1.1      31     20.6    0.34      9      0      0      0     45     0.7     0.4      0     0.01      0.0      0.0      0.0   100    34.2     0.022    -9.9    0.000      45        0.00     365.7    238.1    0.34    92.0     151.9     109.1     100.5      79.2      79.2      68.4    0.000     0.000     0.000     0.000     0.000    0.34     0.00    0.00      0   -9.90   -9.00       15.1       31.7       31.9       31.9       31.9       31.9       31.9       31.9       31.9       31.9       31.9       31.9        0.0        0.0        0.0        0.0        0.0        0.0        0.0        0.0        0.0        0.0        0.0        0.0      0.0       3.1      27.1      30.4      33.7    387.43
    20     7  2009    19     2     365.2     1.6      0.0    0.0    1.6    0.0      0.0      0.0   -9.90      3.4      2.1     62      0.0      0.0   100      3.4     2.1      62     20.6    0.35      8      0      0      0     45     0.7     0.4      0     0.01      0.0      0.0      0.0   100    34.2     0.025    -9.9    0.000      43        0.00     365.2    237.6    0.35    93.7     154.9     111.3     102.5      80.8      80.8      69.8    0.000     0.000     0.000     0.000     0.000    0.35     0.00    0.00      0   -9.90   -9.00       14.6       31.6       31.9       31.9       31.9       31.9       31.9       31.9       31.9       31.9       31.9       31.9        0.0        0.0        0.0        0.0        0.0        0.0        0.0        0.0        0.0        0.0        0.0        0.0      1.6       3.1      27.3      30.9      34.4    387.43
    21     7  2009    20     2     366.2     5.8      0.0    0.0    5.8    0.0      0.0      0.0   -9.90      4.7      4.7    100      0.1      0.1   100      4.7     4.7     100     16.9    0.36      5      0      0      0     45     0.8     0.4      0     0.01      0.1      0.1      0.0   100    34.2     0.029    -9.9    0.000      41        0.00     366.2    238.6    0.36    96.8     157.8     113.4     106.3      83.5      83.5      71.1    0.000     0.000     0.000     0.000     0.000    0.36     0.00    0.00      0   -9.90   -9.00       15.7       31.6       31.9       31.9       31.9       31.9       31.9       31.9       31.9       31.9       31.9       31.9        0.0        0.0        0.0        0.0        0.0        0.0        0.0        0.0        0.0        0.0        0.0        0.0      5.8       4.3      19.9      27.2      34.5    387.43
    22     7  2009    21     2     364.4     0.0      0.0    0.0    0.0    0.0      0.0      0.0   -9.90      4.0      1.8     45      0.1      0.1   100      4.1     1.9      46     19.5    0.36     10      0      0      0     45     0.9     0.5      0     0.02      0.1      0.1      0.0   100    34.2     0.033    -9.9    0.000      39        0.00     364.4    236.8    0.36    97.0     160.7     115.5     107.3      84.4      84.4      72.4    0.000     0.000     0.000     0.000     0.000    0.36     0.00    0.00      0   -9.90   -9.00       13.9       31.5       31.9       31.9       31.9       31.9       31.9       31.9       31.9       31.9       31.9       31.9        0.0        0.0        0.0        0.0        0.0        0.0        0.0        0.0        0.0        0.0        0.0        0.0      0.0       3.7      25.0      29.8      34.5    387.43
    23     7  2009    22     2     363.5     0.0      0.0    0.0    0.0    0.0      0.0      0.0   -9.90      4.1      0.8     21      0.1      0.1   100      4.2     0.9      22     20.1    0.37     14      0      0      0     45     1.0     0.5      0     0.02      0.1      0.1      0.0   100    34.2     0.037    -9.9    0.000      37        0.00     363.5    235.9    0.37    98.2     163.6     117.5     109.4      86.1      86.1      73.7    0.000     0.000     0.000     0.000     0.000    0.37     0.00    0.00      0   -9.90   -9.00       13.0       31.4       31.9       31.9       31.9       31.9       31.9       31.9       31.9       31.9       31.9       31.9        0.0        0.0        0.0        0.0        0.0        0.0        0.0        0.0        0.0        0.0        0.0        0.0      0.0       3.8      26.2      31.1      36.1    387.43
    24     7  2009    23     2     363.2     2.9      0.0    0.0    2.9    0.0      0.0      0.0   -9.90      3.9      3.1     79      0.1      0.1   100      4.0     3.2      80     20.8    0.37      9      0      0      0     45     1.1     0.6      0     0.02      0.1      0.1      0.1   100    34.2     0.042    -9.9    0.000      35        0.00     363.2    235.6    0.37   100.0     166.4     119.6     111.0      87.3      87.3      75.0    0.000     0.000     0.000     0.000     0.000    0.37     0.00    0.00      0   -9.90   -9.00       12.8       31.4       31.9       31.9       31.9       31.9       31.9       31.9       31.9       31.9       31.9       31.9        0.0        0.0        0.0        0.0        0.0        0.0        0.0        0.0        0.0        0.0        0.0        0.0      2.9       3.6      27.5      31.8      36.0    387.43
    25     7  2009    24     2     363.0     2.9      0.0    0.0    2.9    0.0      0.0      0.0   -9.90      3.6      3.0     85      0.1      0.1   100      3.6     3.1      85     20.7    0.38      8      0      0      0     45     1.2     0.6      0     0.02      0.1      0.1      0.1   100    34.2     0.047    -9.9    0.000      33        0.00     363.0    235.4    0.38   101.8     169.2     121.6     112.3      88.5      88.5      76.2    0.000     0.000     0.000     0.000     0.000    0.38     0.00    0.00      0   -9.90   -9.00       12.7       31.3       31.9       31.9       31.9       31.9       31.9       31.9       31.9       31.9       31.9       31.9        0.0        0.0        0.0        0.0        0.0        0.0        0.0        0.0        0.0        0.0        0.0        0.0      2.9       3.3      27.4      31.0      34.6    387.43
    26     7  2009    25     2     362.3     0.0      0.0    0.0    0.0    0.0      0.0      0.0   -9.90      3.8      0.6     17      0.1      0.1   100      3.8     0.7      18     20.5    0.39     14      0      0      0     45     1.3     0.7      0     0.02      0.1      0.1      0.1   100    34.2     0.053    -9.9    0.000      32        0.00     362.3    234.7    0.39   103.1     172.0     123.6     114.5      90.1      90.1      77.5    0.000     0.000     0.000     0.000     0.000    0.39     0.00    0.00      0   -9.90   -9.00       12.1       31.2       31.9       31.9       31.9       31.9       31.9       31.9       31.9       31.9       31.9       31.9        0.0        0.0        0.0        0.0        0.0        0.0        0.0        0.0        0.0        0.0        0.0        0.0      0.0       3.5      27.0      31.1      35.1    387.43
    27     7  2009    26     2     369.2    11.6      0.0    0.0   10.9    0.7      0.0      0.0   -9.90      4.0      4.0    100      0.1      0.1   100      4.1     4.1     100     19.3    0.39      0      0      0      0     45     1.4     0.8      0     0.03      0.1      0.1      0.1   100    34.2     0.059    -9.9    0.000      30        0.00     369.2    241.6    0.39   111.9     174.7     125.5     116.7      91.8      91.8      78.7    0.000     0.000     0.000     0.000     0.000    0.39     0.00    0.00      0   -9.90   -9.00       19.1       31.1       31.9       31.9       31.9       31.9       31.9       31.9       31.9       31.9       31.9       31.9        0.0        0.0        0.0        0.0        0.0        0.0        0.0        0.0        0.0        0.0        0.0        0.0     11.6       3.7      24.5      29.4      34.2    387.43
    28     7  2009    27     2     365.5     0.0      0.0    0.0    0.0    0.0      0.0      0.0   -9.90      3.6      3.6    100      0.1      0.1   100      3.7     3.7     100     20.0    0.40      3      0      0      0     45     1.6     0.9      0     0.03      0.1      0.1      0.1   100    34.2     0.066    -9.9    0.000      28        0.00     365.5    237.9    0.40   110.1     177.4     127.5     117.9      92.9      92.9      79.9    0.000     0.000     0.000     0.000     0.000    0.40     0.00    0.00      0   -9.90   -9.00       15.4       31.0       31.9       31.9       31.9       31.9       31.9       31.9       31.9       31.9       31.9       31.9        0.0        0.0        0.0        0.0        0.0        0.0        0.0        0.0        0.0        0.0        0.0        0.0      0.0       3.4      26.0      30.1      34.2    387.43
    29     7  2009    28     2     365.3     3.9      0.0    0.0    3.9    0.0      0.0      0.0   -9.90      4.1      3.9     97      0.1      0.1   100      4.2     4.1      97     18.2    0.41      4      0      0      0     45     1.7     1.0      0     0.03      0.1      0.1      0.1   100    34.2     0.074    -9.9    0.000      27        0.00     365.3    237.7    0.41   111.9     180.1     129.4     120.5      94.7      94.7      81.1    0.000     0.000     0.000     0.000     0.000    0.41     0.00    0.00      0   -9.90   -9.00       15.4       30.9       31.9       31.9       31.9       31.9       31.9       31.9       31.9       31.9       31.9       31.9        0.0        0.0        0.0        0.0        0.0        0.0        0.0        0.0        0.0        0.0        0.0        0.0      3.9       3.8      22.4      27.8      33.1    387.43
    30     7  2009    29     2     368.2     7.7      0.0    0.0    7.5    0.2      0.0      0.0   -9.90      4.5      4.5    100      0.1      0.1   100      4.6     4.6     100     18.3    0.41      1      0      0      0     45     1.9     1.1      0     0.03      0.1      0.1      0.1   100    34.2     0.083    -9.9    0.000      25        0.00     368.2    240.6    0.41   116.7     182.8     131.3     123.0      96.6      96.6      82.3    0.000     0.000     0.000     0.000     0.000    0.41     0.00    0.00      0   -9.90   -9.00       18.5       30.8       31.9       31.9       31.9       31.9       31.9       31.9       31.9       31.9       31.9       31.9        0.0        0.0        0.0        0.0        0.0        0.0        0.0        0.0        0.0        0.0        0.0        0.0      7.7       4.2      22.5      28.5      34.5    387.43
    31     7  2009    30     2     368.1     3.9      0.0    0.0    3.9    0.0      0.0      0.0   -9.90      3.9      3.9    100      0.1      0.1   100      4.1     4.1     100     19.5    0.42      1      0      0      0     45     2.1     1.2      0     0.04      0.1      0.1      0.1   100    34.2     0.092    -9.9    0.000      24        0.00     368.1    240.5    0.42   118.5     185.4     133.2     123.8      97.4      97.4      83.5    0.000     0.000     0.000     0.000     0.000    0.42     0.00    0.00      0   -9.90   -9.00       18.4       30.6       31.9       31.9       31.9       31.9       31.9       31.9       31.9       31.9       31.9       31.9        0.0        0.0        0.0        0.0        0.0        0.0        0.0        0.0        0.0        0.0        0.0        0.0      3.9       3.7      25.0      29.6      34.2    387.43
     1     8  2009    31     2     366.4     0.0      0.0    0.0    0.0    0.0      0.0      0.0   -9.90      3.8      1.6     42      0.2      0.2   100      4.0     1.7      44     20.1    0.42      4      0      0      0     45     2.4     1.3      0     0.04      0.2      0.2      0.1   100    34.2     0.103    -9.9    0.000      23        0.00     366.4    238.8    0.42   118.6     188.0     135.1     125.4      98.7      98.7      84.7    0.000     0.000     0.000     0.000     0.000    0.42     0.00    0.00      0   -9.90   -9.00       16.9       30.5       31.9       31.9       31.9       31.9       31.9       31.9       31.9       31.9       31.9       31.9        0.0        0.0        0.0        0.0        0.0        0.0        0.0        0.0        0.0        0.0        0.0        0.0      0.0       3.6      26.3      30.5      34.8    387.43
     2     8  2009    32     2     368.6     6.7      0.0    0.0    6.6    0.1      0.0      0.0   -9.90      4.2      4.2    100      0.2      0.2   100      4.4     4.4     100     18.6    0.43      0      0      0      0     45     2.6     1.5      0     0.05      0.2      0.2      0.1   100    34.2     0.115    -9.9    0.000      22        0.00     368.6    241.0    0.43   122.7     190.6     136.9     127.9     100.5     100.5      85.9    0.000     0.000     0.000     0.000     0.000    0.43     0.00    0.00      0   -9.90   -9.00       19.3       30.3       31.9       31.9       31.9       31.9       31.9       31.9       31.9       31.9       31.9       31.9        0.0        0.0        0.0        0.0        0.0        0.0        0.0        0.0        0.0        0.0        0.0        0.0      6.7       4.0      23.3      28.7      34.1    387.43
     3     8  2009    33     2     373.6    10.1      0.0    0.0    9.7    0.4      0.0      0.0   -9.90      4.4      4.4    100      0.2      0.2   100      4.6     4.6     100     17.4    0.44      0      0      0      0     45     3.0     1.6      0     0.05      0.2      0.2      0.2   100    34.2     0.128    -9.9    0.000      21        0.00     373.6    246.0    0.44   129.6     193.2     138.8     130.0     102.1     102.1      87.0    0.000     0.000     0.000     0.000     0.000    0.44     0.00    0.00      0   -9.90   -9.00       24.3       30.3       31.9       31.9       31.9       31.9       31.9       31.9       31.9       31.9       31.9       31.9        0.0        0.0        0.0        0.0        0.0        0.0        0.0        0.0        0.0        0.0        0.0        0.0     10.1       4.2      20.8      27.2      33.6    387.43
     4     8  2009    34     2     369.4     0.0      0.0    0.0    0.0    0.0      0.0      0.0   -9.90      4.1      4.1    100      0.2      0.2   100      4.3     4.3     100     19.3    0.44      0      0      0      0     45     3.3     1.8      0     0.06      0.2      0.2      0.2   100    34.2     0.142    -9.9    0.000      20        0.00     369.4    241.8    0.44   127.2     195.7     140.6     131.1     103.1     103.1      88.2    0.000     0.000     0.000     0.000     0.000    0.44     0.00    0.00      0   -9.90   -9.00       20.1       30.3       31.9       31.9       31.9       31.9       31.9       31.9       31.9       31.9       31.9       31.9        0.0        0.0        0.0        0.0        0.0        0.0        0.0        0.0        0.0        0.0        0.0        0.0      0.0       3.9      24.5      29.4      34.3    387.43
     5     8  2009    35     2     371.5     6.7      0.0    0.0    6.6    0.1      0.0      0.0   -9.90      4.2      4.2    100      0.3      0.3   100      4.5     4.5     100     19.1    0.45      0      0      0      0     45     3.7     2.0      0     0.06      0.3      0.3      0.2   100    34.2     0.158    -9.9    0.000      19        0.00     371.5    243.9    0.45   131.1     198.3     142.4     133.2     104.7     104.7      89.3    0.000     0.000     0.000     0.000     0.000    0.45     0.00    0.00      0   -9.90   -9.00       22.2       30.3       31.9       31.9       31.9       31.9       31.9       31.9       31.9       31.9       31.9       31.9        0.0        0.0        0.0        0.0        0.0        0.0        0.0        0.0        0.0        0.0        0.0        0.0      6.7       4.1      24.3      29.7      35.1    387.43
     6     8  2009    36     2     375.1     7.6      0.0    0.0    7.4    0.2      0.0      0.0   -9.90      3.5      3.5    100      0.2      0.2   100      3.7     3.7     100     19.8    0.45      0      0      0      0     45     4.1     2.3      0     0.07      0.2      0.2      0.2   100    34.2     0.177    -9.9    0.000      18        0.00     375.1    247.5    0.45   136.6     200.8     144.3     133.5     105.1     105.1      90.4    0.000     0.000     0.000     0.000     0.000    0.45     0.00    0.00      0   -9.90   -9.00       25.8       30.3       31.9       31.9       31.9       31.9       31.9       31.9       31.9       31.9       31.9       31.9        0.0        0.0        0.0        0.0        0.0        0.0        0.0        0.0        0.0        0.0        0.0        0.0      7.6       3.4      25.5      29.2      32.9    387.43
     7     8  2009    37     2     376.0     5.1      0.0    0.0    5.0    0.1      0.0      0.0   -9.90      3.8      3.8    100      0.3      0.3   100      4.1     4.1     100     18.9    0.46      0      0      0      0     45     4.6     2.5      0     0.08      0.3      0.3      0.2   100    34.2     0.197    -9.9    0.000      18        0.00     376.0    248.4    0.46   139.3     203.3     146.0     135.8     106.8     106.8      91.6    0.000     0.000     0.000     0.000     0.000    0.46     0.00    0.00      0   -9.90   -9.00       26.7       30.3       31.9       31.9       31.9       31.9       31.9       31.9       31.9       31.9       31.9       31.9        0.0        0.0        0.0        0.0        0.0        0.0        0.0        0.0        0.0        0.0        0.0        0.0      5.1       3.7      23.9      28.4      33.0    387.43
     8     8  2009    38     2     376.8     5.1      0.0    0.0    4.9    0.2      0.0      0.0   -9.90      3.7      3.7    100      0.3      0.3   100      4.1     4.1     100     19.0    0.46      0      0      0      0     45     5.2     2.9      0     0.09      0.3      0.3      0.2   100    34.2     0.219    -9.9    0.000      17        0.00     376.8    249.2    0.46   141.9     205.8     147.8     137.4     108.1     108.1      92.7    0.000     0.000     0.000     0.000     0.000    0.46     0.00    0.00      0   -9.90   -9.00       27.5       30.3       31.9       31.9       31.9       31.9       31.9       31.9       31.9       31.9       31.9       31.9        0.0        0.0        0.0        0.0        0.0        0.0        0.0        0.0        0.0        0.0        0.0        0.0      5.1       3.7      24.0      28.5      33.0    387.43
     9     8  2009    39     2     375.5     2.5      0.0    0.0    2.5    0.0      0.0      0.0   -9.90      3.6      3.5     98      0.4      0.4   100      3.9     3.9      98     19.0    0.47      0      0      0      0     45     5.8     3.2      0     0.10      0.4      0.4      0.3   100    34.2     0.245    -9.9    0.000      17        0.00     375.5    247.9    0.47   142.3     208.2     149.6     138.8     109.3     109.3      93.8    0.000     0.000     0.000     0.000     0.000    0.47     0.00    0.00      0   -9.90   -9.00       26.2       30.3       31.9       31.9       31.9       31.9       31.9       31.9       31.9       31.9       31.9       31.9        0.0        0.0        0.0        0.0        0.0        0.0        0.0        0.0        0.0        0.0        0.0        0.0      2.5       3.6      24.0      28.3      32.5    387.43
    10     8  2009    40     2     372.7     0.0      0.0    0.0    0.0    0.0      0.0      0.0   -9.90      3.4      2.4     69      0.4      0.4   100      3.8     2.7      72     20.0    0.47      0      0      0      0     45     6.5     3.6      0     0.11      0.4      0.4      0.3   100    34.2     0.273    -9.9    0.000      17        0.00     372.7    245.1    0.47   141.3     210.7     151.4     140.3     110.4     110.4      94.9    0.000     0.000     0.000     0.000     0.000    0.47     0.00    0.00      0   -9.90   -9.00       23.4       30.3       31.9       31.9       31.9       31.9       31.9       31.9       31.9       31.9       31.9       31.9        0.0        0.0        0.0        0.0        0.0        0.0        0.0        0.0        0.0        0.0        0.0        0.0      0.0       3.5      26.0      29.9      33.8    387.43
    11     8  2009    41     2     375.2     7.1      0.0    0.0    6.8    0.3      0.0      0.0   -9.90      3.9      3.9    100      0.5      0.5   100      4.4     4.4     100     18.5    0.48      0      0      0      0     45     7.3     4.0      0     0.13      0.5      0.5      0.4   100    34.1     0.304    -9.9    0.000      17        0.00     375.2    247.6    0.48   145.5     213.1     153.1     143.0     112.4     112.4      96.0    0.000     0.000     0.000     0.000     0.000    0.48     0.00    0.00      0   -9.90   -9.00       25.9       30.3       31.9       31.9       31.9       31.9       31.9       31.9       31.9       31.9       31.9       31.9        0.0        0.0        0.0        0.0        0.0        0.0        0.0        0.0        0.0        0.0        0.0        0.0      7.1       4.0      23.0      28.3      33.5    387.43
    12     8  2009    42     2     380.4    10.7      0.0    0.0    9.4    1.3      0.0      0.0   -9.90      3.6      3.6    100      0.5      0.5   100      4.2     4.2     100     19.1    0.49      0      0      0      0     45     8.2     4.5      0     0.14      0.5      0.5      0.4   100    34.1     0.339    -9.9    0.000      18        0.00     380.4    252.8    0.49   152.4     215.5     154.8     144.1     113.4     113.4      97.1    0.000     0.000     0.000     0.000     0.000    0.49     0.00    0.00      0   -9.90   -9.00       31.1       30.3       31.9       31.9       31.9       31.9       31.9       31.9       31.9       31.9       31.9       31.9        0.0        0.0        0.0        0.0        0.0        0.0        0.0        0.0        0.0        0.0        0.0        0.0     10.7       3.8      24.2      28.9      33.6    387.43
    13     8  2009    43     2     381.6     7.1      0.0    0.0    5.8    1.3      0.0      0.0   -9.90      3.9      3.9    100      0.7      0.7   100      4.6     4.6     100     17.8    0.49      0      0      0      0     45     9.2     5.1      0     0.16      0.7      0.7      0.5   100    34.1     0.377    -9.9    0.000      18        0.00     381.6    254.0    0.49   155.4     217.9     156.6     146.6     115.2     115.2      98.2    0.000     0.000     0.000     0.000     0.000    0.49     0.00    0.00      0   -9.90   -9.00       32.3       30.3       31.9       31.9       31.9       31.9       31.9       31.9       31.9       31.9       31.9       31.9        0.0        0.0        0.0        0.0        0.0        0.0        0.0        0.0        0.0        0.0        0.0        0.0      7.1       4.2      21.5      27.1      32.8    387.43
    14     8  2009    44     2     378.0     0.0      0.0    0.0    0.0    0.0      0.0      0.0   -9.90      3.1      3.0     97      0.6      0.6   100      3.7     3.6      97     20.1    0.50      0      0      0      0     45    10.3     5.7      0     0.17      0.6      0.6      0.4   100    34.1     0.420    -9.9    0.000      18        0.00     378.0    250.4    0.50   153.5     220.3     158.3     146.5     115.4     115.4      99.2    0.000     0.000     0.000     0.000     0.000    0.50     0.00    0.00      0   -9.90   -9.00       28.5       30.5       31.9       31.9       31.9       31.9       31.9       31.9       31.9       31.9       31.9       31.9        0.0        0.0        0.0        0.0        0.0        0.0        0.0        0.0        0.0        0.0        0.0        0.0      0.0       3.4      26.3      29.7      33.1    387.43
    15     8  2009    45     2     377.6     4.1      0.0    0.0    3.9    0.2      0.0      0.0   -9.90      3.6      3.6    100      0.8      0.8   100      4.4     4.4     100     17.8    0.50      0      0      0      0     45    11.2     6.2      0     0.19      0.8      0.8      0.5   100    34.1     0.467    -9.9    0.000      19        0.00     377.6    250.0    0.50   154.8     222.7     160.0     149.4     117.4     117.4     100.3    0.000     0.000     0.000     0.000     0.000    0.50     0.00    0.00      0   -9.90   -9.00       28.1       30.5       31.9       31.9       31.9       31.9       31.9       31.9       31.9       31.9       31.9       31.9        0.0        0.0        0.0        0.0        0.0        0.0        0.0        0.0        0.0        0.0        0.0        0.0      4.1       4.0      21.6      26.8      32.0    387.43
    16     8  2009    46     2     373.5     0.0      0.0    0.0    0.0    0.0      0.0      0.0   -9.90      3.9      3.2     83      0.9      0.9   100      4.8     4.1      86     16.9    0.51      0      0      0      0     45    12.1     6.6      0     0.20      0.9      0.9      0.6   100    34.1     0.516    -9.9    0.000      19        0.00     373.5    245.9    0.51   152.4     225.1     161.7     151.9     119.2     119.2     101.4    0.000     0.000     0.000     0.000     0.000    0.51     0.00    0.00      0   -9.90   -9.00       24.0       30.5       31.9       31.9       31.9       31.9       31.9       31.9       31.9       31.9       31.9       31.9        0.0        0.0        0.0        0.0        0.0        0.0        0.0        0.0        0.0        0.0        0.0        0.0      0.0       4.4      19.8      26.3      32.8    387.43
    17     8  2009    47     2     373.6     4.5      0.0    0.0    4.4    0.1      0.0      0.0   -9.90      3.5      3.5    100      0.9      0.9   100      4.4     4.4     100     19.0    0.51      0      0      0      0     45    12.8     7.1      0     0.21      0.9      0.9      0.6   100    34.1     0.569    -9.9    0.000      20        0.00     373.6    246.0    0.51   154.1     227.4     163.4     152.6     119.9     119.9     102.4    0.000     0.000     0.000     0.000     0.000    0.51     0.00    0.00      0   -9.90   -9.00       24.1       30.5       31.9       31.9       31.9       31.9       31.9       31.9       31.9       31.9       31.9       31.9        0.0        0.0        0.0        0.0        0.0        0.0        0.0        0.0        0.0        0.0        0.0        0.0      4.5       4.0      24.0      28.8      33.6    387.43
    18     8  2009    48     2     373.4     4.5      0.0    0.0    4.4    0.1      0.0      0.0   -9.90      3.6      3.6    100      0.9      0.9   100      4.6     4.6     100     18.9    0.52      0      0      0      0     45    13.5     7.4      0     0.22      0.9      0.9      0.7   100    34.0     0.623    -9.9    0.000      21        0.00     373.4    245.8    0.52   155.7     229.8     165.1     154.6     121.4     121.4     103.5    0.000     0.000     0.000     0.000     0.000    0.52     0.00    0.00      0   -9.90   -9.00       23.9       30.5       31.9       31.9       31.9       31.9       31.9       31.9       31.9       31.9       31.9       31.9        0.0        0.0        0.0        0.0        0.0        0.0        0.0        0.0        0.0        0.0        0.0        0.0      4.5       4.2      23.9      29.1      34.3    387.43
    19     8  2009    49     2     373.6     4.5      0.0    0.0    4.4    0.1      0.0      0.0   -9.90      3.3      3.3    100      0.9      0.9   100      4.2     4.2     100     17.9    0.52      0      0      0      0     45    14.0     7.7      0     0.23      0.9      0.9      0.6   100    34.0     0.680    -9.9    0.000      21        0.00     373.6    246.0    0.52   157.6     232.1     166.7     155.5     122.2     122.2     104.5    0.000     0.000     0.000     0.000     0.000    0.52     0.00    0.00      0   -9.90   -9.00       24.2       30.5       31.9       31.9       31.9       31.9       31.9       31.9       31.9       31.9       31.9       31.9        0.0        0.0        0.0        0.0        0.0        0.0        0.0        0.0        0.0        0.0        0.0        0.0      4.5       3.9      21.8      26.7      31.6    387.43
    20     8  2009    50     2     369.8     0.0      0.0    0.0    0.0    0.0      0.0      0.0   -9.90      3.2      2.9     89      0.9      0.9   100      4.1     3.8      92     20.3    0.53      0      0      0      0     45    14.5     8.0      0     0.24      0.9      0.9      0.7   100    33.9     0.738    -9.9    0.000      22        0.00     369.8    242.2    0.53   155.5     234.4     168.4     156.8     123.3     123.3     105.6    0.000     0.000     0.000     0.000     0.000    0.53     0.00    0.00      0   -9.90   -9.00       20.4       30.5       31.9       31.9       31.9       31.9       31.9       31.9       31.9       31.9       31.9       31.9        0.0        0.0        0.0        0.0        0.0        0.0        0.0        0.0        0.0        0.0        0.0        0.0      0.0       3.8      26.6      30.6      34.6    387.43
    21     8  2009    51     2     367.1     0.0      0.0    0.0    0.0    0.0      0.0      0.0   -9.90      3.4      1.8     52      1.0      1.0   100      4.3     2.7      63     19.8    0.53      1      0      0      0     45    14.9     8.2      0     0.25      1.0      1.0      0.7   100    33.9     0.798    -9.9    0.000      22        0.00     367.1    239.5    0.53   154.4     236.7     170.1     158.8     124.8     124.8     106.6    0.000     0.000     0.000     0.000     0.000    0.53     0.00    0.00      0   -9.90   -9.00       18.6       29.5       31.9       31.9       31.9       31.9       31.9       31.9       31.9       31.9       31.9       31.9        0.0        0.0        0.0        0.0        0.0        0.0        0.0        0.0        0.0        0.0        0.0        0.0      0.0       4.0      25.5      30.0      34.5    387.43
    22     8  2009    52     2     372.2    10.1      0.0    0.0    9.7    0.4      0.0      0.0   -9.90      3.5      3.5    100      1.1      1.1   100      4.6     4.6     100     18.0    0.54      0      0      0      0     45    15.2     8.4      0     0.25      1.1      1.1      0.8   100    33.8     0.858    -9.9    0.000      23        0.00     372.2    244.6    0.54   161.1     239.0     171.7     160.8     126.3     126.3     107.7    0.000     0.000     0.000     0.000     0.000    0.54     0.00    0.00      0   -9.90   -9.00       23.7       29.5       31.9       31.9       31.9       31.9       31.9       31.9       31.9       31.9       31.9       31.9        0.0        0.0        0.0        0.0        0.0        0.0        0.0        0.0        0.0        0.0        0.0        0.0     10.1       4.2      22.0      27.1      32.2    387.43
    23     8  2009    53     2     372.9     5.1      0.0    0.0    5.0    0.1      0.0      0.0   -9.90      3.3      3.3    100      1.0      1.0   100      4.3     4.3     100     18.2    0.54      0      0      0      0     45    15.5     8.5      0     0.25      1.0      1.0      0.7   100    33.8     0.919    -9.9    0.000      23        0.00     372.9    245.3    0.54   163.4     241.3     173.4     161.9     127.2     127.2     108.7    0.000     0.000     0.000     0.000     0.000    0.54     0.00    0.00      0   -9.90   -9.00       24.4       29.5       31.9       31.9       31.9       31.9       31.9       31.9       31.9       31.9       31.9       31.9        0.0        0.0        0.0        0.0        0.0        0.0        0.0        0.0        0.0        0.0        0.0        0.0      5.1       4.0      22.4      27.2      32.0    387.43
    24     8  2009    54     2     378.2    10.1      0.0    0.0    9.3    0.8      0.0      0.0   -9.90      3.0      3.0    100      0.9      0.9   100      3.9     3.9     100     19.4    0.55      0      0      0      0     45    15.8     8.7      0     0.26      0.9      0.9      0.7   100    33.7     0.981    -9.9    0.000      24        0.00     378.2    250.6    0.55   170.4     243.6     175.0     162.4     127.8     127.8     109.7    0.000     0.000     0.000     0.000     0.000    0.55     0.00    0.00      0   -9.90   -9.00       29.7       29.5       31.9       31.9       31.9       31.9       31.9       31.9       31.9       31.9       31.9       31.9        0.0        0.0        0.0        0.0        0.0        0.0        0.0        0.0        0.0        0.0        0.0        0.0     10.1       3.6      24.7      28.6      32.5    387.43
    25     8  2009    55     2     386.9    20.3      0.0    0.0   12.7    7.6      0.0      0.0   -9.90      3.1      3.1    100      1.0      1.0   100      4.0     4.0     100     18.8    0.55      0      0      0      0     45    16.0     8.8      0     0.26      1.0      1.0      0.7   100    33.6     1.044    -9.9    0.000      24        0.00     386.9    259.3    0.55   180.7     245.8     176.6     164.2     129.2     129.2     110.7    0.000     0.000     0.000     0.000     0.000    0.55     0.00    0.00      0   -9.90   -9.00       38.4       29.5       31.9       31.9       31.9       31.9       31.9       31.9       31.9       31.9       31.9       31.9        0.0        0.0        0.0        0.0        0.0        0.0        0.0        0.0        0.0        0.0        0.0        0.0     20.3       3.7      23.5      27.6      31.8    387.43
    26     8  2009    56     2     383.1     0.0      0.0    0.0    0.0    0.0      0.0      0.0   -9.90      2.9      2.9    100      0.9      0.9   100      3.8     3.8     100     19.4    0.56      0      0      0      0     45    16.1     8.9      0     0.26      0.9      0.9      0.7   100    33.5     1.107    -9.9    0.000      24        0.00     383.1    255.5    0.56   178.5     248.1     178.2     165.2     130.0     130.0     111.7    0.000     0.000     0.000     0.000     0.000    0.56     0.00    0.00      0   -9.90   -9.00       31.7       32.2       32.0       31.9       31.9       31.9       31.9       31.9       31.9       31.9       31.9       31.9        0.0        0.0        0.0        0.0        0.0        0.0        0.0        0.0        0.0        0.0        0.0        0.0      0.0       3.5      24.8      28.4      32.0    387.43
    27     8  2009    57     2     383.8     6.6      0.0    0.0    5.1    1.5      0.0      0.0   -9.90      3.3      3.3    100      1.1      1.1   100      4.3     4.3     100     20.4    0.56      0      0      0      0     45    16.3     9.0      0     0.27      1.1      1.1      0.8   100    33.5     1.171    -9.9    0.000      25        0.00     383.8    256.2    0.56   180.8     250.3     179.8     167.9     132.0     132.0     112.8    0.000     0.000     0.000     0.000     0.000    0.56     0.00    0.00      0   -9.90   -9.00       32.4       32.1       32.0       32.0       31.9       31.9       31.9       31.9       31.9       31.9       31.9       31.9        0.0        0.0        0.0        0.0        0.0        0.0        0.0        0.0        0.0        0.0        0.0        0.0      6.6       4.0      26.9      31.1      35.4    387.43
    28     8  2009    58     2     388.3    16.6      0.0    0.0    8.8    7.8      0.1      0.0   -9.90      3.2      3.2    100      1.0      1.0   100      4.2     4.2     100     18.6    0.57      0      0      0      0     45    16.4     9.0      0     0.27      1.0      1.0      0.7   100    33.3     1.234    -9.9    0.000      25        0.00     388.3    260.6    0.57   186.8     252.5     181.4     169.2     133.0     133.0     113.8    0.000     0.000     0.000     0.000     0.000    0.57     0.00    0.00      0   -9.90   -9.00       36.8       32.1       32.0       32.0       32.0       31.9       31.9       31.9       31.9       31.9       31.9       31.9        0.0        0.0        0.0        0.0        0.0        0.0        0.0        0.0        0.0        0.0        0.0        0.0     16.6       3.9      23.3      27.6      32.0    387.43
    29     8  2009    59     2     384.1     0.0      0.0    0.0    0.0    0.0      0.2      0.0   -9.90      3.0      3.0    100      1.0      1.0   100      4.0     4.0     100     19.8    0.57      0      0      0      0     45    16.5     9.1      0     0.27      1.0      1.0      0.7   100    33.2     1.298    -9.9    0.000      25        0.00     384.1    256.4    0.57   184.1     254.8     183.0     170.1     133.9     133.9     114.8    0.000     0.000     0.000     0.000     0.000    0.57     0.00    0.00      0   -9.90   -9.00       30.6       33.2       32.6       32.1       32.0       32.0       32.0       31.9       31.9       31.9       31.9       31.9        0.0        0.0        0.0        0.0        0.0        0.0        0.0        0.0        0.0        0.0        0.0        0.0      0.0       3.7      25.5      29.4      33.2    387.43
    30     8  2009    60     2     379.2     0.0      0.0    0.0    0.0    0.0      0.3      0.0   -9.90      3.5      3.4     98      1.2      1.2   100      4.7     4.6      99     19.8    0.58      0      0      0      0     45    16.6     9.1      0     0.27      1.2      1.2      0.8   100    33.1     1.362    -9.9    0.000      26        0.00     379.2    251.4    0.58   180.6     257.0     184.6     173.2     136.0     136.0     115.8    0.000     0.000     0.000     0.000     0.000    0.58     0.00    0.00      0   -9.90   -9.00       26.0       32.7       32.3       32.3       32.1       32.1       32.0       32.0       32.0       32.0       31.9       31.9        0.0        0.0        0.0        0.0        0.0        0.0        0.0        0.0        0.0        0.0        0.0        0.0      0.0       4.3      25.5      30.1      34.8    387.43
    31     8  2009    61     2     382.8     9.9      0.0    0.0    8.8    1.1      0.5      0.0   -9.90      3.5      3.5    100      1.2      1.2   100      4.7     4.7     100     17.9    0.58      0      0      0      0     45    16.6     9.2      0     0.27      1.2      1.2      0.8   100    33.0     1.425    -9.9    0.000      26        0.00     382.8    254.9    0.58   185.7     259.2     186.2     174.7     137.2     137.2     116.7    0.000     0.000     0.000     0.000     0.000    0.58     0.00    0.00      0   -9.90   -9.00       30.1       32.3       32.1       32.1       32.1       32.1       32.0       32.0       32.0       32.0       32.0       32.0        0.0        0.0        0.0        0.0        0.0        0.0        0.0        0.0        0.0        0.0        0.0        0.0      9.9       4.3      21.7      26.9      32.1    387.43
     1     9  2009    62     2     377.9     0.0      0.0    0.0    0.0    0.0      0.6      0.0   -9.90      3.3      3.3    100      1.1      1.1   100      4.3     4.3     100     19.5    0.59      0      0      0      0     45    16.7     9.2      0     0.27      1.1      1.1      0.8   100    32.8     1.489    -9.9    0.000      26        0.00     377.9    250.0    0.59   182.4     261.4     187.8     175.3     137.8     137.8     117.7    0.000     0.000     0.000     0.000     0.000    0.59     0.00    0.00      0   -9.90   -9.00       25.8       32.1       32.0       32.0       32.0       32.0       32.0       32.0       32.0       32.0       32.0       32.0        0.0        0.0        0.0        0.0        0.0        0.0        0.0        0.0        0.0        0.0        0.0        0.0      0.0       4.0      25.0      29.3      33.5    387.43
     2     9  2009    63     2     372.7     0.0      0.0    0.0    0.0    0.0      0.5      0.0   -9.90      3.7      3.5     94      1.3      1.3   100      5.0     4.8      96     18.5    0.59      0      0      0      0     45    16.7     9.2      0     0.27      1.3      1.3      0.9   100    32.7     1.552    -9.9    0.000      26        0.00     372.7    244.9    0.59   178.9     263.6     189.4     178.4     140.0     140.0     118.7    0.000     0.000     0.000     0.000     0.000    0.59     0.00    0.00      0   -9.90   -9.00       21.0       32.0       32.0       32.0       32.0       32.0       32.0       32.0       32.0       32.0       32.0       32.0        0.0        0.0        0.0        0.0        0.0        0.0        0.0        0.0        0.0        0.0        0.0        0.0      0.0       4.6      23.0      28.5      34.0    387.43
     3     9  2009    64     2     376.3     8.6      0.0    0.0    8.3    0.3      0.3      0.0   -9.90      3.2      3.2    100      1.1      1.1   100      4.3     4.3     100     18.0    0.60      0      0      0      0     45    16.7     9.2      0     0.27      1.1      1.1      0.8   100    32.6     1.616    -9.9    0.000      26        0.00     376.3    248.5    0.60   184.2     265.7     190.9     178.3     140.1     140.1     119.7    0.000     0.000     0.000     0.000     0.000    0.60     0.00    0.00      0   -9.90   -9.00       24.9       32.0       31.9       31.9       31.9       31.9       31.9       31.9       31.9       31.9       31.9       31.9        0.0        0.0        0.0        0.0        0.0        0.0        0.0        0.0        0.0        0.0        0.0        0.0      8.6       4.0      22.0      26.5      31.0    387.43
     4     9  2009    65     2     371.7     0.0      0.0    0.0    0.0    0.0      0.2      0.0   -9.90      3.3      3.3    100      1.1      1.1   100      4.4     4.4     100     19.8    0.60      0      0      0      0     45    16.8     9.2      0     0.27      1.1      1.1      0.8   100    32.4     1.679    -9.9    0.000      27        0.00     371.7    244.0    0.60   181.2     267.9     192.5     180.0     141.4     141.4     120.7    0.000     0.000     0.000     0.000     0.000    0.60     0.00    0.00      0   -9.90   -9.00       20.5       31.9       31.9       31.9       31.9       31.9       31.9       31.9       31.9       31.9       31.9       31.9        0.0        0.0        0.0        0.0        0.0        0.0        0.0        0.0        0.0        0.0        0.0        0.0      0.0       4.1      25.5      29.8      34.0    387.43
     5     9  2009    66     2     371.6     4.3      0.0    0.0    4.3    0.0      0.1      0.0   -9.90      3.2      3.2    100      1.0      1.0   100      4.2     4.2     100     18.4    0.61      0      0      0      0     45    16.6     9.1      0     0.27      1.0      1.0      0.7   100    32.3     1.740    -9.9    0.000      27        0.00     371.6    244.0    0.61   182.8     270.1     194.0     180.9     142.3     142.3     121.7    0.000     0.000     0.000     0.000     0.000    0.61     0.00    0.00      0   -9.90   -9.00       20.6       31.9       31.9       31.9       31.9       31.9       31.9       31.9       31.9       31.9       31.9       31.9        0.0        0.0        0.0        0.0        0.0        0.0        0.0        0.0        0.0        0.0        0.0        0.0      4.3       3.9      22.7      26.9      31.1    387.43
     6     9  2009    67     3     382.9    17.1      0.0    0.0   15.1    2.0      0.1      0.0   -9.90      2.9      2.9    100      0.9      0.9   100      3.8     3.8     100     19.0    0.61      0      0      0      0     45    16.6     9.1      0     0.27      0.9      0.9      0.7   100    32.2     1.801    -9.9    0.000      27        0.00     382.9    255.2    0.61   195.6     272.2     195.6     181.3     142.7     142.7     122.6    0.000     0.000     0.000     0.000     0.000    0.61     0.00    0.00      0   -9.90   -9.00       31.9       31.9       31.9       31.9       31.9       31.9       31.9       31.9       31.9       31.9       31.9       31.9        0.0        0.0        0.0        0.0        0.0        0.0        0.0        0.0        0.0        0.0        0.0        0.0     17.1       3.5      24.0      27.4      30.7    387.43
     7     9  2009    68     3     381.4     3.4      0.0    0.0    3.0    0.4      0.0      0.0   -9.90      3.4      3.4    100      1.1      1.1   100      4.5     4.5     100     19.4    0.62     -9      0      0      0     45    16.3     9.0      0     0.26      1.1      1.1      0.8   100    31.9     1.859    -9.9    0.000      27        0.00     381.4    253.8    0.62   195.7     274.4     197.1     184.6     145.0     145.0     123.6    0.000     0.000     0.000     0.000     0.000    0.62     0.00    0.00      0   -9.90   -9.00       30.4       31.9       31.9       31.9       31.9       31.9       31.9       31.9       31.9       31.9       31.9       31.9        0.0        0.0        0.0        0.0        0.0        0.0        0.0        0.0        0.0        0.0        0.0        0.0      3.4       4.2      24.8      29.3      33.8    387.43
     8     9  2009    69     3     378.4     0.0      0.0    0.0    0.0    0.0      0.0      0.0   -9.90      2.8      2.0     73      0.9      0.9   100      3.7     2.9      80     20.0    0.62      0      0      0      0     45    16.3     9.0      0     0.26      0.9      0.9      0.6   100    31.7     1.918    -9.9    0.000      27        0.00     378.4    250.8    0.62   194.3     276.5     198.7     183.8     144.8     144.8     124.6    0.000     0.000     0.000     0.000     0.000    0.62     0.00    0.00      0   -9.90   -9.00       27.5       31.9       31.9       31.9       31.9       31.9       31.9       31.9       31.9       31.9       31.9       31.9        0.0        0.0        0.0        0.0        0.0        0.0        0.0        0.0        0.0        0.0        0.0        0.0      0.0       3.4      26.0      29.0      32.0    387.43
     9     9  2009    70     3     383.7    10.3      0.0    0.0    8.6    1.7      0.0      0.0   -9.90      2.5      2.5    100      0.8      0.8   100      3.3     3.3     100     18.9    0.63      0      0      0      0     45    16.3     9.0      0     0.26      0.8      0.8      0.6   100    31.6     1.976     1.4    0.028      27        0.01     383.7    256.1    0.63   201.1     278.7     200.2     184.4     145.4     145.4     125.5    0.000     0.000     0.000     0.000     0.000    0.63     0.00    0.00      0   -9.90   -9.00       32.8       31.9       31.9       31.9       31.9       31.9       31.9       31.9       31.9       31.9       31.9       31.9        0.0        0.0        0.0        0.0        0.0        0.0        0.0        0.0        0.0        0.0        0.0        0.0     10.3       3.1      24.4      26.9      29.4    387.43
    10     9  2009    71     3     386.0    10.3      0.0    0.0    6.8    3.5      0.0      0.0   -9.90      3.4      3.4    100      1.1      1.1   100      4.4     4.4     100     19.3    0.63      0      0      0      0     45    16.3     9.0      0     0.26      1.1      1.1      0.8   100    31.4     2.034     1.6    0.033      27        0.01     386.0    258.4    0.63   205.0     280.8     201.7     188.6     148.2     148.2     126.5    0.000     0.000     0.000     0.000     0.000    0.63     0.00    0.00      0   -9.90   -9.00       34.8       32.1       32.0       31.9       31.9       31.9       31.9       31.9       31.9       31.9       31.9       31.9        0.0        0.0        0.0        0.0        0.0        0.0        0.0        0.0        0.0        0.0        0.0        0.0     10.3       4.1      24.5      28.6      32.8    387.43
    11     9  2009    72     3     387.5     8.0      0.0    0.0    5.8    2.2      0.1      0.0   -9.90      3.3      3.3    100      1.0      1.0   100      4.3     4.3     100     20.0    0.64      0      0      0      0     45    16.3     9.0      0     0.26      1.0      1.0      0.7   100    31.2     2.092     1.8    0.038      27        0.01     387.5    259.8    0.64   207.9     282.9     203.3     189.8     149.2     149.2     127.4    0.000     0.000     0.000     0.000     0.000    0.64     0.00    0.00      0   -9.90   -9.00       35.0       32.7       32.3       32.0       32.0       31.9       31.9       31.9       31.9       31.9       31.9       31.9        0.0        0.0        0.0        0.0        0.0        0.0        0.0        0.0        0.0        0.0        0.0        0.0      8.0       4.0      26.0      29.8      33.5    387.43
    12     9  2009    73     3     383.3     0.0      0.0    0.0    0.0    0.0      0.2      0.0   -9.90      3.0      3.0    100      0.9      0.9   100      4.0     4.0     100     19.8    0.64     -9      0      0      0     45    16.1     8.8      0     0.25      0.9      0.9      0.7   100    31.1     2.147     2.0    0.043      27        0.02     383.3    255.6    0.64   205.1     285.0     204.8     190.3     149.8     149.8     128.4    0.000     0.000     0.000     0.000     0.000    0.64     0.00    0.00      0   -9.90   -9.00       29.7       33.1       32.5       32.2       32.1       32.0       32.0       32.0       31.9       31.9       31.9       31.9        0.0        0.0        0.0        0.0        0.0        0.0        0.0        0.0        0.0        0.0        0.0        0.0      0.0       3.7      25.6      29.0      32.4    387.43
    13     9  2009    74     3     379.5     0.0      0.0    0.0    0.0    0.0      0.4      0.0   -9.90      3.5      2.4     70      1.1      1.1   100      4.5     3.5      77     19.8    0.65     -9      0      0      0     45    16.1     8.9      0     0.25      1.1      1.1      0.8   100    30.9     2.202     2.3    0.050      27        0.02     379.5    251.6    0.65   202.5     287.1     206.3     193.2     151.8     151.8     129.3    0.000     0.000     0.000     0.000     0.000    0.65     0.00    0.00      0   -9.90   -9.00       26.2       32.6       32.3       32.3       32.2       32.1       32.0       32.0       32.0       32.0       32.0       32.0        0.0        0.0        0.0        0.0        0.0        0.0        0.0        0.0        0.0        0.0        0.0        0.0      0.0       4.2      25.5      29.6      33.7    387.43
    14     9  2009    75     3     382.3     8.0      0.0    0.0    7.3    0.7      0.6      0.0   -9.90      3.0      3.0    100      0.9      0.9   100      3.9     3.9     100     20.4    0.65     -9      0      0      0     45    16.1     8.9      0     0.25      0.9      0.9      0.6   100    30.7     2.258     2.5    0.057      27        0.02     382.3    254.3    0.65   206.7     289.2     207.8     192.9     151.8     151.8     130.3    0.000     0.000     0.000     0.000     0.000    0.65     0.00    0.00      0   -9.90   -9.00       29.6       32.3       32.1       32.1       32.1       32.1       32.0       32.0       32.0       32.0       32.0       32.0        0.0        0.0        0.0        0.0        0.0        0.0        0.0        0.0        0.0        0.0        0.0        0.0      8.0       3.6      26.7      29.8      32.8    387.43
    15     9  2009    76     3     376.8     0.0      0.0    0.0    0.0    0.0      0.6      0.0   -9.90      3.8      3.8    100      1.2      1.2   100      4.9     4.9     100     19.7    0.66     -9      0      0      0     45    16.1     8.9      0     0.25      1.2      1.2      0.8   100    30.5     2.312     2.8    0.065      27        0.02     376.8    248.8    0.66   202.8     291.3     209.3     197.2     154.7     154.7     131.2    0.000     0.000     0.000     0.000     0.000    0.66     0.00    0.00      0   -9.90   -9.00       24.6       32.1       32.0       32.0       32.0       32.0       32.0       32.0       32.0       32.0       32.0       32.0        0.0        0.0        0.0        0.0        0.0        0.0        0.0        0.0        0.0        0.0        0.0        0.0      0.0       4.6      25.4      30.2      35.0    387.43
    16     9  2009    77     3     381.2    10.9      0.0    0.0    9.8    1.1      0.5      0.0   -9.90      3.7      3.7    100      1.1      1.1   100      4.8     4.8     100     17.3    0.66     -9      0      0      0     45    16.2     8.9      0     0.25      1.1      1.1      0.8   100    30.3     2.367     3.2    0.075      27        0.03     381.2    253.4    0.66   208.9     293.4     210.8     198.3     155.6     155.6     132.2    0.000     0.000     0.000     0.000     0.000    0.66     0.00    0.00      0   -9.90   -9.00       29.6       32.0       32.0       32.0       32.0       32.0       32.0       32.0       32.0       32.0       32.0       32.0        0.0        0.0        0.0        0.0        0.0        0.0        0.0        0.0        0.0        0.0        0.0        0.0     10.9       4.5      20.6      25.9      31.2    387.43
    17     9  2009    78     3     377.0     0.0      0.0    0.0    0.0    0.0      0.3      0.0   -9.90      3.0      3.0    100      0.9      0.9   100      3.9     3.9     100     18.9    0.67     -9      0      0      0     45    16.2     8.9      0     0.25      0.9      0.9      0.6   100    30.1     2.421     3.5    0.086      28        0.03     377.0    249.3    0.67   206.3     295.5     212.3     197.0     155.1     155.1     133.1    0.000     0.000     0.000     0.000     0.000    0.67     0.00    0.00      0   -9.90   -9.00       25.7       32.0       31.9       31.9       31.9       31.9       31.9       31.9       31.9       31.9       31.9       31.9        0.0        0.0        0.0        0.0        0.0        0.0        0.0        0.0        0.0        0.0        0.0        0.0      0.0       3.6      23.8      27.0      30.1    387.43
    18     9  2009    79     3     379.3     7.3      0.0    0.0    6.8    0.5      0.2      0.0   -9.90      3.3      3.3    100      1.0      1.0   100      4.3     4.3     100     19.5    0.67     -9      0      0      0     45    16.2     8.9      0     0.25      1.0      1.0      0.7   100    29.9     2.476     3.9    0.097      28        0.03     379.3    251.7    0.67   210.2     297.5     213.8     199.6     156.9     156.9     134.0    0.000     0.000     0.000     0.000     0.000    0.67     0.00    0.00      0   -9.90   -9.00       28.2       31.9       31.9       31.9       31.9       31.9       31.9       31.9       31.9       31.9       31.9       31.9        0.0        0.0        0.0        0.0        0.0        0.0        0.0        0.0        0.0        0.0        0.0        0.0      7.3       4.0      25.0      28.9      32.8    387.43
    19     9  2009    80     4     375.4     0.0      0.0    0.0    0.0    0.0      0.1      0.0   -9.90      3.0      3.0    100      0.9      0.9   100      3.9     3.9     100     19.8    0.67     -9      0      0      0     45    16.2     8.9      0     0.25      0.9      0.9      0.7   100    29.7     2.529     4.4    0.111      28        0.04     375.4    247.7    0.67   207.8     299.6     215.3     199.8     157.2     157.2     135.0    0.000     0.000     0.000     0.000     0.000    0.67     0.00    0.00      0   -9.90   -9.00       24.3       31.9       31.9       31.9       31.9       31.9       31.9       31.9       31.9       31.9       31.9       31.9        0.0        0.0        0.0        0.0        0.0        0.0        0.0        0.0        0.0        0.0        0.0        0.0      0.0       3.6      25.5      28.4      31.3    387.43
    20     9  2009    81     4     371.3     0.0      0.0    0.0    0.0    0.0      0.1      0.0   -9.90      3.5      2.9     84      1.1      1.1   100      4.6     4.0      87     20.4    0.68     -9      0      0      0     45    16.2     8.9      0     0.25      1.1      1.1      0.8   100    29.5     2.583     4.9    0.126      28        0.04     371.3    243.6    0.68   205.2     301.7     216.7     203.3     159.6     159.6     135.9    0.000     0.000     0.000     0.000     0.000    0.68     0.00    0.00      0   -9.90   -9.00       20.3       31.9       31.9       31.9       31.9       31.9       31.9       31.9       31.9       31.9       31.9       31.9        0.0        0.0        0.0        0.0        0.0        0.0        0.0        0.0        0.0        0.0        0.0        0.0      0.0       4.3      26.7      30.6      34.6    387.43
    21     9  2009    82     4     368.6     0.0      0.0    0.0    0.0    0.0      0.0      0.0   -9.90      3.3      1.6     48      1.0      1.0   100      4.3     2.6      61     20.9    0.68     -9      0      0      0     45    16.2     8.9      0     0.25      1.0      1.0      0.7   100    29.3     2.636     5.4    0.142      28        0.05     368.6    241.0    0.68   204.0     303.7     218.2     203.7     160.2     160.2     136.8    0.000     0.000     0.000     0.000     0.000    0.68     0.00    0.00      0   -9.90   -9.00       18.7       30.9       31.9       31.9       31.9       31.9       31.9       31.9       31.9       31.9       31.9       31.9        0.0        0.0        0.0        0.0        0.0        0.0        0.0        0.0        0.0        0.0        0.0        0.0      0.0       4.0      27.8      31.1      34.5    387.43
    22     9  2009    83     4     368.8     3.9      0.0    0.0    3.9    0.0      0.0      0.0   -9.90      2.8      2.8    100      0.9      0.9   100      3.7     3.7     100     19.4    0.69     -9      0      0      0     45    16.3     8.9      0     0.25      0.9      0.9      0.6   100    29.1     2.689     6.0    0.161      28        0.05     368.8    241.2    0.69   205.7     305.8     219.7     203.3     160.1     160.1     137.7    0.000     0.000     0.000     0.000     0.000    0.69     0.00    0.00      0   -9.90   -9.00       19.8       30.0       31.9       31.9       31.9       31.9       31.9       31.9       31.9       31.9       31.9       31.9        0.0        0.0        0.0        0.0        0.0        0.0        0.0        0.0        0.0        0.0        0.0        0.0      3.9       3.4      24.9      27.6      30.3    387.43
    23     9  2009    84     4     365.6     0.0      0.0    0.0    0.0    0.0      0.0      0.0   -9.90      3.5      2.2     61      1.1      1.1   100      4.6     3.3      70     19.3    0.69     -9      0      0      0     45    16.3     8.9      0     0.25      1.1      1.1      0.8   100    28.8     2.741     6.6    0.181      28        0.06     365.6    238.0    0.69   203.9     307.8     221.1     207.4     162.9     162.9     138.6    0.000     0.000     0.000     0.000     0.000    0.69     0.00    0.00      0   -9.90   -9.00       17.6       28.9       31.9       31.9       31.9       31.9       31.9       31.9       31.9       31.9       31.9       31.9        0.0        0.0        0.0        0.0        0.0        0.0        0.0        0.0        0.0        0.0        0.0        0.0      0.0       4.3      24.6      28.8      33.0    387.43
    24     9  2009    85     4     363.4     0.0      0.0    0.0    0.0    0.0      0.0      0.0   -9.90      3.5      1.1     32      1.1      1.1   100      4.6     2.2      48     20.0    0.70     -9      0      0      0     45    16.3     8.9      0     0.26      1.1      1.1      0.8   100    28.6     2.793     7.2    0.202      28        0.07     363.4    235.8    0.70   203.2     309.8     222.6     208.8     164.0     164.0     139.6    0.000     0.000     0.000     0.000     0.000    0.70     0.00    0.00      0   -9.90   -9.00       16.5       27.8       31.9       31.9       31.9       31.9       31.9       31.9       31.9       31.9       31.9       31.9        0.0        0.0        0.0        0.0        0.0        0.0        0.0        0.0        0.0        0.0        0.0        0.0      0.0       4.3      26.0      29.9      33.8    387.43
    25     9  2009    86     4     370.6    11.7      0.0    0.0   11.1    0.6      0.0      0.0   -9.90      3.0      3.0    100      0.9      0.9   100      3.9     3.9     100     18.9    0.70     -9      0      0      0     45    16.3     9.0      0     0.26      0.9      0.9      0.7   100    28.4     2.844     7.8    0.223      28        0.07     370.6    243.0    0.70   211.8     311.9     224.1     208.0     163.7     163.7     140.5    0.000     0.000     0.000     0.000     0.000    0.70     0.00    0.00      0   -9.90   -9.00       23.7       27.8       31.9       31.9       31.9       31.9       31.9       31.9       31.9       31.9       31.9       31.9        0.0        0.0        0.0        0.0        0.0        0.0        0.0        0.0        0.0        0.0        0.0        0.0     11.7       3.6      23.8      26.9      30.0    387.43
    26     9  2009    87     4     365.8     0.0      0.0    0.0    0.0    0.0      0.0      0.0   -9.90      3.6      3.6    100      1.1      1.1   100      4.7     4.7     100     19.8    0.71     -9      0      0      0     45    16.3     8.9      0     0.25      1.1      1.1      0.8   100    28.1     2.895     8.5    0.245      28        0.08     365.8    238.2    0.71   208.6     313.9     225.5     211.8     166.3     166.3     141.4    0.000     0.000     0.000     0.000     0.000    0.71     0.00    0.00      0   -9.90   -9.00       19.1       27.8       31.9       31.9       31.9       31.9       31.9       31.9       31.9       31.9       31.9       31.9        0.0        0.0        0.0        0.0        0.0        0.0        0.0        0.0        0.0        0.0        0.0        0.0      0.0       4.4      25.5      29.8      34.1    387.43
    27     9  2009    88     4     360.9     0.0      0.0    0.0    0.0    0.0      0.0      0.0   -9.90      4.3      3.6     85      1.3      1.3   100      5.6     4.9      88     19.0    0.71     -9      0      0      0     45    16.2     8.9      0     0.25      1.3      1.3      0.9   100    27.9     2.946     9.1    0.268      28        0.08     360.9    233.3    0.71   205.1     315.9     227.0     215.7     168.9     168.9     142.3    0.000     0.000     0.000     0.000     0.000    0.71     0.00    0.00      0   -9.90   -9.00       15.5       26.4       31.9       31.9       31.9       31.9       31.9       31.9       31.9       31.9       31.9       31.9        0.0        0.0        0.0        0.0        0.0        0.0        0.0        0.0        0.0        0.0        0.0        0.0      0.0       5.2      24.0      29.8      35.5    387.43
    28     9  2009    89     4     358.9     0.0      0.0    0.0    0.0    0.0      0.0      0.0   -9.90      4.3      0.7     17      1.3      1.3   100      5.6     2.0      37     20.5    0.72     -9      0      0      0     45    16.1     8.9      0     0.25      1.3      1.3      0.9   100    27.6     2.995     9.7    0.291      27        0.09     358.9    231.3    0.72   204.5     317.9     228.4     217.1     170.0     170.0     143.2    0.000     0.000     0.000     0.000     0.000    0.72     0.00    0.00      0   -9.90   -9.00       14.7       25.1       31.9       31.9       31.9       31.9       31.9       31.9       31.9       31.9       31.9       31.9        0.0        0.0        0.0        0.0        0.0        0.0        0.0        0.0        0.0        0.0        0.0        0.0      0.0       5.2      27.0      32.2      37.4    387.43
    29     9  2009    90     4     357.2     0.0      0.0    0.0    0.0    0.0      0.0      0.0   -9.90      3.8      0.5     14      1.1      1.1   100      4.9     1.7      34     21.2    0.72     -9      0      0      0     45    16.1     8.8      0     0.25      1.1      1.1      0.8   100    27.4     3.044    10.3    0.315      27        0.10     357.2    229.6    0.72   204.3     319.9     229.9     216.6     169.9     169.9     144.1    0.000     0.000     0.000     0.000     0.000    0.72     0.00    0.00      0   -9.90   -9.00       14.2       24.0       31.9       31.9       31.9       31.9       31.9       31.9       31.9       31.9       31.9       31.9        0.0        0.0        0.0        0.0        0.0        0.0        0.0        0.0        0.0        0.0        0.0        0.0      0.0       4.6      28.4      32.5      36.6    387.43
[...]
    19    10  2019   110     4     319.1     0.0      0.0    0.0    0.0    0.0      0.0      0.0   -9.90      3.7      0.2      4      0.8      0.8   100      4.5     1.0      21     20.5    0.80     -9      0      0      0     45    14.1     7.8      0     0.18      0.8      0.8      0.6   100    24.3     3.768    22.8    0.859      25        0.31     319.1    191.5    0.80   191.5     355.2     255.2     239.7     188.2     188.2     160.0    0.000     0.000     0.000     0.000     0.000    0.80     0.00    0.00      0   -9.90   -9.00       10.6       19.6       19.9       19.8       25.9       31.9       31.9       31.9       31.9       31.9       31.9       31.9        0.0        0.0        0.0        0.0        0.0        0.0        0.0        0.0        0.0        0.0        0.0        0.0      0.0       4.4      27.0      30.6      34.2    410.21
    20    10  2019   111     4     318.1     0.0      0.0    0.0    0.0    0.0      0.0      0.0   -9.90      4.0      0.2      4      0.8      0.8   100      4.8     1.0      21     20.4    0.80     -9      0      0      0     45    14.0     7.7      0     0.18      0.8      0.8      0.6   100    24.1     3.799    23.4    0.890      25        0.32     318.1    190.5    0.80   190.5     355.2     255.2     240.8     188.9     188.9     160.0    0.000     0.000     0.000     0.000     0.000    0.80     0.00    0.00      0   -9.90   -9.00       10.4       19.6       19.9       19.8       25.1       31.9       31.9       31.9       31.9       31.9       31.9       31.9        0.0        0.0        0.0        0.0        0.0        0.0        0.0        0.0        0.0        0.0        0.0        0.0      0.0       4.7      26.7      30.8      34.9    410.21
    21    10  2019   112     4     316.9     0.0      0.0    0.0    0.0    0.0      0.0      0.0   -9.90      4.9      0.2      4      1.0      1.0    98      5.9     1.2      20     18.4    0.80     -9      2      0      0     45    13.8     7.6      0     0.17      1.0      1.0      0.7    98    23.8     3.828    24.0    0.920      25        0.33     316.9    189.3    0.80   189.3     355.2     255.2     244.4     191.1     191.1     160.0    0.000     0.000     0.000     0.000     0.000    0.80     0.00    0.00      0   -9.90   -9.00       10.2       19.6       19.9       19.8       24.1       31.9       31.9       31.9       31.9       31.9       31.9       31.9        0.0        0.0        0.0        0.0        0.0        0.0        0.0        0.0        0.0        0.0        0.0        0.0      0.0       5.7      22.7      29.1      35.6    410.21
    22    10  2019   113     4     315.9     0.0      0.0    0.0    0.0    0.0      0.0      0.0   -9.90      4.8      0.2      4      0.9      0.9    95      5.7     1.1      19     19.0    0.80     -9      5      0      0     45    13.6     7.5      0     0.17      0.9      0.9      0.6    95    23.6     3.855    24.7    0.951      25        0.34     315.9    188.3    0.80   188.3     355.2     255.2     244.0     190.8     190.8     160.0    0.000     0.000     0.000     0.000     0.000    0.80     0.00    0.00      0   -9.90   -9.00       10.1       19.6       19.9       19.8       23.2       31.9       31.9       31.9       31.9       31.9       31.9       31.9        0.0        0.0        0.0        0.0        0.0        0.0        0.0        0.0        0.0        0.0        0.0        0.0      0.0       5.6      24.0      30.1      36.2    410.21
    23    10  2019   114     4     314.9     0.0      0.0    0.0    0.0    0.0      0.0      0.0   -9.90      4.5      0.2      4      0.9      0.8    93      5.4     1.0      18     19.0    0.80     -9      7      0      0     45    13.4     7.3      0     0.16      0.9      0.8      0.6    93    23.4     3.881    25.3    0.981      25        0.35     314.9    187.3    0.80   187.3     355.2     255.2     242.9     190.2     190.2     160.0    0.000     0.000     0.000     0.000     0.000    0.80     0.00    0.00      0   -9.90   -9.00       10.0       19.5       19.9       19.8       22.4       31.9       31.9       31.9       31.9       31.9       31.9       31.9        0.0        0.0        0.0        0.0        0.0        0.0        0.0        0.0        0.0        0.0        0.0        0.0      0.0       5.3      24.0      29.5      35.0    410.21
    24    10  2019   115     4     314.0     0.0      0.0    0.0    0.0    0.0      0.0      0.0   -9.90      4.3      0.2      4      0.8      0.7    92      5.1     0.9      17     19.0    0.80     -9      8      0      0     45    13.1     7.2      0     0.16      0.8      0.7      0.5    92    23.2     3.905    25.9    1.012      25        0.36     314.0    186.4    0.80   186.4     355.2     255.2     241.9     189.5     189.5     160.0    0.000     0.000     0.000     0.000     0.000    0.80     0.00    0.00      0   -9.90   -9.00       10.0       19.4       19.9       19.8       21.7       31.9       31.9       31.9       31.9       31.9       31.9       31.9        0.0        0.0        0.0        0.0        0.0        0.0        0.0        0.0        0.0        0.0        0.0        0.0      0.0       5.0      24.0      29.1      34.2    410.21
    25    10  2019   116     4     313.2     0.0      0.0    0.0    0.0    0.0      0.0      0.0   -9.90      4.0      0.1      4      0.7      0.6    92      4.7     0.8      17     19.5    0.80     -9      8      0      0     45    12.8     7.0      0     0.15      0.7      0.6      0.5    92    23.1     3.928    26.5    1.042      25        0.37     313.2    185.6    0.80   185.6     355.2     255.2     240.4     188.6     188.6     160.0    0.000     0.000     0.000     0.000     0.000    0.80     0.00    0.00      0   -9.90   -9.00       10.0       19.2       19.9       19.8       21.0       31.9       31.9       31.9       31.9       31.9       31.9       31.9        0.0        0.0        0.0        0.0        0.0        0.0        0.0        0.0        0.0        0.0        0.0        0.0      0.0       4.6      25.0      29.2      33.4    410.21
    26    10  2019   117     4     312.5     0.0      0.0    0.0    0.0    0.0      0.0      0.0   -9.90      4.1      0.2      4      0.7      0.6    88      4.8     0.8      16     20.0    0.80     -9     12      0      0     45    12.4     6.8      0     0.14      0.7      0.6      0.4    88    22.9     3.948    27.2    1.072      25        0.38     312.5    184.9    0.80   184.9     355.2     255.2     241.2     189.1     189.1     160.0    0.000     0.000     0.000     0.000     0.000    0.80     0.00    0.00      0   -9.90   -9.00       10.0       19.1       19.9       19.8       20.4       31.9       31.9       31.9       31.9       31.9       31.9       31.9        0.0        0.0        0.0        0.0        0.0        0.0        0.0        0.0        0.0        0.0        0.0        0.0      0.0       4.8      26.0      30.4      34.8    410.21
    27    10  2019   118     4     311.8     0.0      0.0    0.0    0.0    0.0      0.0      0.0   -9.90      4.0      0.1      4      0.6      0.5    86      4.6     0.7      15     20.0    0.80     -9     14      0      0     45    12.0     6.6      0     0.13      0.6      0.5      0.4    86    22.8     3.967    27.8    1.102      25        0.39     311.8    184.2    0.80   184.2     355.2     255.2     240.4     188.6     188.6     160.0    0.000     0.000     0.000     0.000     0.000    0.80     0.00    0.00      0   -9.90   -9.00       10.0       18.9       19.9       19.8       19.9       31.9       31.9       31.9       31.9       31.9       31.9       31.9        0.0        0.0        0.0        0.0        0.0        0.0        0.0        0.0        0.0        0.0        0.0        0.0      0.0       4.6      26.0      30.2      34.4    410.21
    28    10  2019   119     4     311.1     0.0      0.0    0.0    0.0    0.0      0.0      0.0   -9.90      4.8      0.2      3      0.7      0.5    79      5.5     0.7      13     18.2    0.80     -9     21      0      0     45    11.6     6.4      0     0.12      0.7      0.5      0.4    79    22.6     3.983    28.4    1.131      24        0.40     311.1    183.5    0.80   183.5     355.2     255.2     243.7     190.6     190.6     160.0    0.000     0.000     0.000     0.000     0.000    0.80     0.00    0.00      0   -9.90   -9.00       10.0       18.8       19.9       19.8       19.9       31.4       31.9       31.9       31.9       31.9       31.9       31.9        0.0        0.0        0.0        0.0        0.0        0.0        0.0        0.0        0.0        0.0        0.0        0.0      0.0       5.5      22.4      28.8      35.1    410.21
    29    10  2019   120     4     310.4     0.0      0.0    0.0    0.0    0.0      0.0      0.0   -9.90      5.1      0.2      3      0.7      0.5    74      5.8     0.7      12     17.3    0.80     -9     26      0      0     45    11.1     6.1      0     0.11      0.7      0.5      0.4    74    22.5     3.997    29.0    1.160      24        0.41     310.4    182.8    0.80   182.8     355.2     255.2     245.1     191.5     191.5     160.0    0.000     0.000     0.000     0.000     0.000    0.80     0.00    0.00      0   -9.90   -9.00       10.0       18.6       19.9       19.8       19.9       30.9       31.9       31.9       31.9       31.9       31.9       31.9        0.0        0.0        0.0        0.0        0.0        0.0        0.0        0.0        0.0        0.0        0.0        0.0      0.0       5.9      20.5      28.1      35.7    410.21
    30    10  2019   121     4     309.9     0.0      0.0    0.0    0.0    0.0      0.0      0.0   -9.90      4.3      0.1      3      0.5      0.4    77      4.8     0.5      11     20.1    0.80     -9     23      0      0     45    10.5     5.8      0     0.10      0.5      0.4      0.3    77    22.4     4.010    29.6    1.188      24        0.42     309.9    182.3    0.80   182.3     355.2     255.2     241.5     189.3     189.3     160.0    0.000     0.000     0.000     0.000     0.000    0.80     0.00    0.00      0   -9.90   -9.00       10.0       18.4       19.9       19.8       19.9       30.5       31.9       31.9       31.9       31.9       31.9       31.9        0.0        0.0        0.0        0.0        0.0        0.0        0.0        0.0        0.0        0.0        0.0        0.0      0.0       4.9      26.2      30.9      35.5    410.21
    31    10  2019   122     4     309.4     0.0      0.0    0.0    0.0    0.0      0.0      0.0   -9.90      4.9      0.2      3      0.5      0.4    72      5.4     0.5      10     18.0    0.80     -9     28      0      0     45     9.8     5.4      0     0.09      0.5      0.4      0.3    72    22.3     4.020    30.3    1.216      24        0.42     309.4    181.8    0.80   181.8     355.2     255.2     244.0     190.8     190.8     160.0    0.000     0.000     0.000     0.000     0.000    0.80     0.00    0.00      0   -9.90   -9.00       10.0       18.3       19.9       19.8       19.9       30.1       31.9       31.9       31.9       31.9       31.9       31.9        0.0        0.0        0.0        0.0        0.0        0.0        0.0        0.0        0.0        0.0        0.0        0.0      0.0       5.6      22.0      28.6      35.2    410.21
     1    11  2019   123     4     308.9     0.0      0.0    0.0    0.0    0.0      0.0      0.0   -9.90      5.1      0.2      3      0.4      0.3    69      5.6     0.5       8     18.0    0.80     -9     31      0      0     45     9.0     5.0      0     0.08      0.4      0.3      0.2    69    22.2     4.029    30.9    1.244      24        0.43     308.9    181.3    0.80   181.3     355.2     255.2     244.7     191.3     191.3     160.0    0.000     0.000     0.000     0.000     0.000    0.80     0.00    0.00      0   -9.90   -9.00       10.0       18.1       19.9       19.8       19.9       29.8       31.9       31.9       31.9       31.9       31.9       31.9        0.0        0.0        0.0        0.0        0.0        0.0        0.0        0.0        0.0        0.0        0.0        0.0      0.0       5.8      22.0      29.1      36.2    410.21
     2    11  2019   124     4     308.5     0.0      0.0    0.0    0.0    0.0      0.0      0.0   -9.90      5.4      0.2      3      0.4      0.2    67      5.7     0.4       7     17.7    0.80     -9     33      0      0     45     8.1     4.5      0     0.06      0.4      0.2      0.2    67    22.2     4.035    31.5    1.271      24        0.44     308.5    180.9    0.80   180.9     355.2     255.2     245.5     191.7     191.7     160.0    0.000     0.000     0.000     0.000     0.000    0.80     0.00    0.00      0   -9.90   -9.00       10.0       17.9       19.9       19.8       19.9       29.6       31.9       31.9       31.9       31.9       31.9       31.9        0.0        0.0        0.0        0.0        0.0        0.0        0.0        0.0        0.0        0.0        0.0        0.0      0.0       6.0      21.4      29.0      36.6    410.21
     3    11  2019   125     4     308.1     0.0      0.0    0.0    0.0    0.0      0.0      0.0   -9.90      4.8      0.1      3      0.3      0.2    69      5.0     0.3       6     19.8    0.80     -9     31      0      0     45     7.1     3.9      0     0.05      0.3      0.2      0.1    69    22.1     4.041    32.1    1.297      24        0.45     308.1    180.5    0.80   180.5     355.2     255.2     242.9     190.2     190.2     160.0    0.000     0.000     0.000     0.000     0.000    0.80     0.00    0.00      0   -9.90   -9.00       10.0       17.8       19.9       19.8       19.9       29.4       31.9       31.9       31.9       31.9       31.9       31.9        0.0        0.0        0.0        0.0        0.0        0.0        0.0        0.0        0.0        0.0        0.0        0.0      0.0       5.3      25.6      31.1      36.6    410.21
     4    11  2019   126     4     307.9     0.0      0.0    0.0    0.0    0.0      0.0      0.0   -9.90      5.3      0.2      3      0.2      0.1    65      5.5     0.3       5     19.8    0.80     -9     35      0      0     45     5.9     3.3      0     0.03      0.2      0.1      0.1    65    22.1     4.044    32.7    1.324      24        0.46     307.9    180.3    0.80   180.3     355.2     255.2     244.7     191.3     191.3     160.0    0.000     0.000     0.000     0.000     0.000    0.80     0.00    0.00      0   -9.90   -9.00       10.0       17.6       19.9       19.8       19.9       29.3       31.9       31.9       31.9       31.9       31.9       31.9        0.0        0.0        0.0        0.0        0.0        0.0        0.0        0.0        0.0        0.0        0.0        0.0      0.0       5.8      25.5      31.8      38.1    410.21
     5    11  2019   127     4     307.6     0.0      0.0    0.0    0.0    0.0      0.0      0.0   -9.90      5.1      0.2      3      0.1      0.1    66      5.2     0.2       4     19.0    0.80     -9     34      0      0     45     4.6     2.5      0     0.02      0.1      0.1      0.1    66    22.1     4.046    33.0    1.334      24        0.46     307.6    180.0    0.80   180.0     355.2     255.2     243.3     190.4     190.4     160.0    0.000     0.000     0.000     0.000     0.000    0.80     0.00    0.00      0   -9.90   -9.00       10.0       17.5       19.9       19.8       19.9       29.2       31.9       31.9       31.9       31.9       31.9       31.9        0.0        0.0        0.0        0.0        0.0        0.0        0.0        0.0        0.0        0.0        0.0        0.0      0.0       5.4      24.0      30.0      36.0    410.21
     6    11  2019   128     4     307.5     0.0      0.0    0.0    0.0    0.0      0.0      0.0   -9.90      5.0      0.1      3      0.0      0.0    66      5.1     0.2       4     20.1    0.80     -9     34      0      0     45     3.1     1.7      0     0.01      0.0      0.0      0.0    66    22.1     4.047    33.0    1.334      24        0.46     307.5    179.9    0.80   179.9     355.2     255.2     242.6     190.0     190.0     160.0    0.000     0.000     0.000     0.000     0.000    0.80     0.00    0.00      0   -9.90   -9.00       10.0       17.3       19.9       19.8       19.9       29.2       31.9       31.9       31.9       31.9       31.9       31.9        0.0        0.0        0.0        0.0        0.0        0.0        0.0        0.0        0.0        0.0        0.0        0.0      0.0       5.2      26.2      31.4      36.6    410.21
     7    11  2019   129     4     307.3     0.0      0.0    0.0    0.0    0.0      0.0      0.0   -9.90      6.4      0.2      3      0.0      0.0    60      6.4     0.2       3     15.4    0.80     -9     40      0      0     45     1.4     0.7      0     0.00      0.0      0.0      0.0    60    22.1     4.047    33.0    1.334      24        0.46     307.3    179.7    0.80   179.7     355.2     255.2     246.9     192.6     192.6     160.0    0.000     0.000     0.000     0.000     0.000    0.80     0.00    0.00      0   -9.90   -9.00       10.0       17.2       19.9       19.8       19.9       29.2       31.9       31.9       31.9       31.9       31.9       31.9        0.0        0.0        0.0        0.0        0.0        0.0        0.0        0.0        0.0        0.0        0.0        0.0      0.0       6.4      16.8      26.7      36.6    410.21
     8    11  2019    -9     0     307.1     0.0      0.0    0.0    0.0    0.0      0.0      0.0   -9.90      5.9      0.2      3      0.0      0.0   100      5.9     0.2       3     18.0    0.80     -9     -9      0      0     -9     0.0     0.0      0    -9.00      0.0      0.0      0.0   100    22.1     4.047    33.0    1.334      24        0.46     307.1    179.5    0.80   179.5     355.2     255.2     245.1     191.5     191.5     160.0    0.000     0.000     0.000     0.000     0.000    0.80     0.00    0.00      0   -9.90   -9.00       10.0       17.0       19.9       19.8       19.9       29.2       31.9       31.9       31.9       31.9       31.9       31.9        0.0        0.0        0.0        0.0        0.0        0.0        0.0        0.0        0.0        0.0        0.0        0.0      0.0       5.9      22.0      29.5      37.0    410.21
     9    11  2019    -9     0     306.9     0.0      0.0    0.0    0.0    0.0      0.0      0.0   -9.90      5.5      0.2      3      0.0      0.0   100      5.5     0.2       3     18.7    0.80     -9     -9      0      0     -9     0.0     0.0      0    -9.00      0.0      0.0      0.0   100    22.1     4.047    33.0    1.334      24        0.46     306.9    179.3    0.80   179.3     355.2     255.2     245.1     190.6     191.5     160.0    0.000     0.000     0.000     0.000     0.000    0.80     0.00    0.00      0   -9.90   -9.00       10.0       16.8       19.9       19.8       19.9       29.2       31.9       31.9       31.9       31.9       31.9       31.9        0.0        0.0        0.0        0.0        0.0        0.0        0.0        0.0        0.0        0.0        0.0        0.0      0.0       5.5      23.4      29.9      36.4    410.21
    10    11  2019    -9     0     306.8     0.0      0.0    0.0    0.0    0.0      0.0      0.0   -9.90      5.6      0.2      3      0.0      0.0   100      5.6     0.2       3     18.0    0.80     -9     -9      0      0     -9     0.0     0.0      0    -9.00      0.0      0.0      0.0   100    22.1     4.047    33.0    1.334      24        0.46     306.8    179.2    0.80   179.2     355.2     255.2     245.1     190.8     191.5     160.0    0.000     0.000     0.000     0.000     0.000    0.80     0.00    0.00      0   -9.90   -9.00       10.0       16.7       19.9       19.8       19.9       29.2       31.9       31.9       31.9       31.9       31.9       31.9        0.0        0.0        0.0        0.0        0.0        0.0        0.0        0.0        0.0        0.0        0.0        0.0      0.0       5.6      22.0      28.9      35.8    410.21
