AquaCrop 6.0 (March 2017) - Output created on (date) : 14/07/2022   at (time) : 11:09:20

   Run:   1
   Day Month  Year   DAP Stage   WC(1.20)   Rain     Irri   Surf   Infilt   RO    Drain       CR    Zgwt       Ex       E     E/Ex     Trx       Tr  Tr/Trx    ETx      ET  ET/ETx      GD       Z     StExp  StSto  StSen StSalt StWeed   CC      CCw     StTr  Kc(Tr)     Trx       Tr      TrW  Tr/Trx   WP    Biomass     HI  YieldPart  Brelative    WPet  WC(1.20) Wr(0.80)     Z       Wr    Wr(SAT)    Wr(FC)   Wr(exp)   Wr(sto)   Wr(sen)   Wr(PWP)    SaltIn    SaltOut   SaltUp   Salt(1.20)  SaltZ     Z       ECe    ECsw   StSalt  Zgwt    ECgw       WC01       WC 2       WC 3       WC 4       WC 5       WC 6       WC 7       WC 8       WC 9       WC10       WC11       WC12      ECe01      ECe 2      ECe 3      ECe 4      ECe 5      ECe 6      ECe 7      ECe 8      ECe 9      ECe10      ECe11      ECe12     Rain       ETo      Tmin      Tavg      Tmax      CO2
                                      mm      mm       mm     mm     mm     mm       mm       mm      m        mm       mm     %        mm       mm    %        mm      mm       %    °C-day     m       %      %      %      %      %      %       %       %       -        mm       mm       mm    %     g/m2    ton/ha      %    ton/ha       %       kg/m3      mm       mm       m       mm        mm        mm        mm        mm        mm         mm    ton/ha    ton/ha    ton/ha    ton/ha    ton/ha     m      dS/m    dS/m      %     m      dS/m       0.05       0.15       0.25       0.35       0.45       0.55       0.65       0.75       0.85       0.95       1.05       1.15       0.05       0.15       0.25       0.35       0.45       0.55       0.65       0.75       0.85       0.95       1.05       1.15       mm        mm       °C        °C        °C       ppm
     2     7  2009     1     1     383.4     6.5      0.0    0.0    5.0    1.5      0.0      0.0   -9.90      4.4      4.4    100      0.0      0.0   100      4.4     4.4     100     18.0    0.30     -9     -9     -9      0     -9     0.0     0.0      0    -9.00      0.0      0.0      0.0   100     0.0     0.000    -9.9    0.000      -9        0.00     383.4    255.8    0.30    96.3     133.2      95.7      90.7      70.2      71.1      60.0    0.000     0.000     0.000     0.000     0.000    0.30     0.00    0.00      0   -9.90   -9.00       32.5       31.9       31.9       31.9       31.9       31.9       31.9       31.9       31.9       31.9       31.9       31.9        0.0        0.0        0.0        0.0        0.0        0.0        0.0        0.0        0.0        0.0        0.0        0.0      6.5       4.0      22.0      28.4      34.8    387.43
     3     7  2009     2     1     379.7     0.0      0.0    0.0    0.0    0.0      0.0      0.0   -9.90      4.3      3.7     86      0.0      0.0   100      4.3     3.7      86     19.1    0.30     -9     -9     -9      0     -9     0.0     0.0      0    -9.00      0.0      0.0      0.0   100     0.0     0.000    -9.9    0.000      -9        0.00     379.7    252.1    0.30    92.6     133.2      95.7      90.7      70.2      71.1      60.0    0.000     0.000     0.000     0.000     0.000    0.30     0.00    0.00      0   -9.90   -9.00       28.6       32.1       32.0       31.9       31.9       31.9       31.9       31.9       31.9       31.9       31.9       31.9        0.0        0.0        0.0        0.0        0.0        0.0        0.0        0.0        0.0        0.0        0.0        0.0      0.0       3.9      24.1      29.7      35.3    387.43
     4     7  2009     3     1     377.2     0.0      0.0    0.0    0.0    0.0      0.0      0.0   -9.90      4.3      2.5     58      0.0      0.0   100      4.3     2.5      58     20.2    0.30     -9     -9     -9      0     -9     0.0     0.0      0    -9.00      0.0      0.0      0.0   100     0.0     0.000    -9.9    0.000      -9        0.00     377.2    249.6    0.30    90.0     133.2      95.7      90.7      70.2      71.1      60.0    0.000     0.000     0.000     0.000     0.000    0.30     0.00    0.00      0   -9.90   -9.00       26.1       32.0       31.9       31.9       31.9       31.9       31.9       31.9       31.9       31.9       31.9       31.9        0.0        0.0        0.0        0.0        0.0        0.0        0.0        0.0        0.0        0.0        0.0        0.0      0.0       3.9      26.4      31.9      37.5    387.43
     5     7  2009     4     1     383.7     9.8      0.0    0.0    8.7    1.1      0.0      0.0   -9.90      2.2      2.2    100      0.0      0.0   100      2.2     2.2     100     19.1    0.30     -9     -9     -9      0     -9     0.0     0.0      0    -9.00      0.0      0.0      0.0   100     0.0     0.000    -9.9    0.000      -9        0.00     383.7    256.0    0.30    96.5     133.2      95.7      90.7      68.6      71.1      60.0    0.000     0.000     0.000     0.000     0.000    0.30     0.00    0.00      0   -9.90   -9.00       32.6       31.9       31.9       31.9       31.9       31.9       31.9       31.9       31.9       31.9       31.9       31.9        0.0        0.0        0.0        0.0        0.0        0.0        0.0        0.0        0.0        0.0        0.0        0.0      9.8       2.0      25.5      27.1      28.7    387.43
     6     7  2009     5     1     379.5     0.0      0.0    0.0    0.0    0.0      0.1      0.0   -9.90      4.1      4.1    100      0.0      0.0   100      4.1     4.1     100     20.0    0.30     -9     -9     -9      0     -9     0.0     0.0      0    -9.00      0.0      0.0      0.0   100     0.0     0.000    -9.9    0.000      -9        0.00     379.5    251.9    0.30    92.3     133.2      95.7      90.7      70.0      71.1      60.0    0.000     0.000     0.000     0.000     0.000    0.30     0.00    0.00      0   -9.90   -9.00       28.2       32.1       32.0       31.9       31.9       31.9       31.9       31.9       31.9       31.9       31.9       31.9        0.0        0.0        0.0        0.0        0.0        0.0        0.0        0.0        0.0        0.0        0.0        0.0      0.0       3.7      26.0      31.2      36.4    387.43
     7     7  2009     6     1     375.7     0.0      0.0    0.0    0.0    0.0      0.1      0.0   -9.90      4.0      3.8     96      0.0      0.0   100      4.0     3.8      96     19.6    0.30     -9     -9     -9      0     -9     0.0     0.0      0    -9.00      0.0      0.0      0.0   100     0.0     0.000    -9.9    0.000      -9        0.00     375.7    248.0    0.30    88.4     133.2      95.7      90.7      69.9      71.1      60.0    0.000     0.000     0.000     0.000     0.000    0.30     0.00    0.00      0   -9.90   -9.00       24.4       32.0       32.0       32.0       31.9       31.9       31.9       31.9       31.9       31.9       31.9       31.9        0.0        0.0        0.0        0.0        0.0        0.0        0.0        0.0        0.0        0.0        0.0        0.0      0.0       3.6      25.2      30.0      34.9    387.43
     8     7  2009     7     2     373.2     0.0      0.0    0.0    0.0    0.0      0.1      0.0   -9.90      3.6      2.4     67      0.0      0.0   100      3.6     2.4      67     20.1    0.30     -9      0      0      0     45     0.2     0.1      0     0.00      0.0      0.0      0.0   100    34.2     0.001    -9.9    0.000      74        0.00     373.2    245.5    0.30    85.9     133.2      95.7      88.4      69.7      69.7      60.0    0.000     0.000     0.000     0.000     0.000    0.30     0.00    0.00      0   -9.90   -9.00       22.0       32.0       31.9       31.9       31.9       31.9       31.9       31.9       31.9       31.9       31.9       31.9        0.0        0.0        0.0        0.0        0.0        0.0        0.0        0.0        0.0        0.0        0.0        0.0      0.0       3.3      26.2      30.2      34.2    387.43
     9     7  2009     8     2     371.0     0.0      0.0    0.0    0.0    0.0      0.1      0.0   -9.90      4.3      2.0     47      0.0      0.0   100      4.3     2.0      47     20.5    0.30     -9      0      0      0     45     0.2     0.1      0     0.00      0.0      0.0      0.0   100    34.2     0.002    -9.9    0.000      69        0.00     371.0    243.4    0.30    83.8     133.2      95.7      89.2      70.2      70.2      60.0    0.000     0.000     0.000     0.000     0.000    0.30     0.00    0.00      0   -9.90   -9.00       20.0       31.9       31.9       31.9       31.9       31.9       31.9       31.9       31.9       31.9       31.9       31.9        0.0        0.0        0.0        0.0        0.0        0.0        0.0        0.0        0.0        0.0        0.0        0.0      0.0       3.9      27.0      32.1      37.3    387.43
    10     7  2009     9     2     369.6     0.0      0.0    0.0    0.0    0.0      0.1      0.0   -9.90      3.8      1.4     36      0.0      0.0   100      3.8     1.4      36     21.0    0.30     -9      0      0      0     45     0.3     0.1      0     0.00      0.0      0.0      0.0   100    34.2     0.003    -9.9    0.000      66        0.00     369.6    241.9    0.30    82.4     133.2      95.7      88.7      69.8      69.8      60.0    0.000     0.000     0.000     0.000     0.000    0.30     0.00    0.00      0   -9.90   -9.00       18.6       31.9       31.9       31.9       31.9       31.9       31.9       31.9       31.9       31.9       31.9       31.9        0.0        0.0        0.0        0.0        0.0        0.0        0.0        0.0        0.0        0.0        0.0        0.0      0.0       3.5      28.0      32.3      36.5    387.43
    11     7  2009    10     2     368.9     3.4      0.0    0.0    3.4    0.0      0.0      0.0   -9.90      4.6      4.0     88      0.0      0.0   100      4.6     4.0      88     19.0    0.30      4      0      0      0     45     0.3     0.2      0     0.01      0.0      0.0      0.0   100    34.2     0.005    -9.9    0.000      64        0.00     368.9    241.3    0.30    81.7     133.2      95.7      89.6      70.4      70.4      60.0    0.000     0.000     0.000     0.000     0.000    0.30     0.00    0.00      0   -9.90   -9.00       18.0       31.9       31.9       31.9       31.9       31.9       31.9       31.9       31.9       31.9       31.9       31.9        0.0        0.0        0.0        0.0        0.0        0.0        0.0        0.0        0.0        0.0        0.0        0.0      3.4       4.2      24.0      30.3      36.6    387.43
    12     7  2009    11     2     368.4     3.4      0.0    0.0    3.4    0.0      0.0      0.0   -9.90      4.3      3.8     89      0.0      0.0   100      4.3     3.8      89     20.5    0.30      5      0      0      0     45     0.3     0.2      0     0.01      0.0      0.0      0.0   100    34.2     0.006    -9.9    0.000      61        0.00     368.4    240.8    0.30    81.3     133.2      95.7      89.2      70.2      70.2      60.0    0.000     0.000     0.000     0.000     0.000    0.30     0.00    0.00      0   -9.90   -9.00       17.6       31.8       31.9       31.9       31.9       31.9       31.9       31.9       31.9       31.9       31.9       31.9        0.0        0.0        0.0        0.0        0.0        0.0        0.0        0.0        0.0        0.0        0.0        0.0      3.4       3.9      27.0      32.3      37.6    387.43
    13     7  2009    12     2     374.4    10.0      0.0    0.0    9.6    0.4      0.0      0.0   -9.90      3.6      3.6    100      0.0      0.0   100      3.6     3.6     100     19.5    0.30      0      0      0      0     45     0.4     0.2      0     0.01      0.0      0.0      0.0   100    34.2     0.008    -9.9    0.000      59        0.00     374.4    246.8    0.30    87.3     133.2      95.7      88.4      69.7      69.7      60.0    0.000     0.000     0.000     0.000     0.000    0.30     0.00    0.00      0   -9.90   -9.00       23.5       31.8       31.9       31.9       31.9       31.9       31.9       31.9       31.9       31.9       31.9       31.9        0.0        0.0        0.0        0.0        0.0        0.0        0.0        0.0        0.0        0.0        0.0        0.0     10.0       3.3      25.0      29.4      33.8    387.43
    14     7  2009    13     2     373.6     3.4      0.0    0.0    3.4    0.0      0.0      0.0   -9.90      4.2      4.1     99      0.0      0.0   100      4.2     4.1      99     19.8    0.31      0      0      0      0     45     0.4     0.2      0     0.01      0.0      0.0      0.0   100    34.2     0.010    -9.9    0.000      57        0.00     373.6    246.0    0.31    88.7     136.2      97.8      91.1      71.6      71.6      61.3    0.000     0.000     0.000     0.000     0.000    0.31     0.00    0.00      0   -9.90   -9.00       22.8       31.8       31.9       31.9       31.9       31.9       31.9       31.9       31.9       31.9       31.9       31.9        0.0        0.0        0.0        0.0        0.0        0.0        0.0        0.0        0.0        0.0        0.0        0.0      3.4       3.8      25.5      30.6      35.7    387.43
    15     7  2009    14     2     376.0     6.7      0.0    0.0    6.5    0.2      0.0      0.0   -9.90      4.0      4.0    100      0.0      0.0   100      4.1     4.1     100     18.3    0.31      0      0      0      0     45     0.4     0.2      0     0.01      0.0      0.0      0.0   100    34.2     0.012    -9.9    0.000      54        0.00     376.0    248.4    0.31    93.4     139.4     100.2      93.1      73.3      73.3      62.8    0.000     0.000     0.000     0.000     0.000    0.31     0.00    0.00      0   -9.90   -9.00       25.2       31.8       31.9       31.9       31.9       31.9       31.9       31.9       31.9       31.9       31.9       31.9        0.0        0.0        0.0        0.0        0.0        0.0        0.0        0.0        0.0        0.0        0.0        0.0      6.7       3.7      22.6      27.9      33.1    387.43
    16     7  2009    15     2     373.7     1.8      0.0    0.0    1.8    0.0      0.0      0.0   -9.90      4.5      4.1     91      0.0      0.0   100      4.5     4.1      91     18.6    0.32      0      0      0      0     45     0.5     0.3      0     0.01      0.0      0.0      0.0   100    34.2     0.014    -9.9    0.000      52        0.00     373.7    246.1    0.32    93.4     142.6     102.5      95.8      75.3      75.3      64.2    0.000     0.000     0.000     0.000     0.000    0.32     0.00    0.00      0   -9.90   -9.00       22.9       31.8       31.9       31.9       31.9       31.9       31.9       31.9       31.9       31.9       31.9       31.9        0.0        0.0        0.0        0.0        0.0        0.0        0.0        0.0        0.0        0.0        0.0        0.0      1.8       4.1      23.3      29.4      35.5    387.43
    17     7  2009    16     2     371.2     0.0      0.0    0.0    0.0    0.0      0.0      0.0   -9.90      4.2      2.5     58      0.0      0.0   100      4.3     2.5      59     19.5    0.33      2      0      0      0     45     0.5     0.3      0     0.01      0.0      0.0      0.0   100    34.2     0.016    -9.9    0.000      50        0.00     371.2    243.6    0.33    93.1     145.8     104.7      97.6      76.8      76.8      65.7    0.000     0.000     0.000     0.000     0.000    0.33     0.00    0.00      0   -9.90   -9.00       20.4       31.8       31.9       31.9       31.9       31.9       31.9       31.9       31.9       31.9       31.9       31.9        0.0        0.0        0.0        0.0        0.0        0.0        0.0        0.0        0.0        0.0        0.0        0.0      0.0       3.9      25.0      30.4      35.7    387.43
    18     7  2009    17     2     369.5     0.0      0.0    0.0    0.0    0.0      0.0      0.0   -9.90      4.0      1.7     42      0.0      0.0   100      4.1     1.7      42     19.3    0.34      4      0      0      0     45     0.6     0.3      0     0.01      0.0      0.0      0.0   100    34.2     0.019    -9.9    0.000      48        0.00     369.5    241.9    0.34    93.6     148.8     106.9      99.4      78.2      78.2      67.0    0.000     0.000     0.000     0.000     0.000    0.34     0.00    0.00      0   -9.90   -9.00       18.7       31.8       31.9       31.9       31.9       31.9       31.9       31.9       31.9       31.9       31.9       31.9        0.0        0.0        0.0        0.0        0.0        0.0        0.0        0.0        0.0        0.0        0.0        0.0      0.0       3.7      24.6      29.6      34.6    387.43
    19     7  2009    18     2     368.3     0.0      0.0    0.0    0.0    0.0      0.0      0.0   -9.90      3.4      1.1     33      0.0      0.0   100      3.4     1.2      34     20.6    0.34      5      0      0      0     45     0.7     0.4      0     0.01      0.0      0.0      0.0   100    34.2     0.022    -9.9    0.000      46        0.00     368.3    240.7    0.34    94.7     151.9     109.1     100.5      79.2      79.2      68.4    0.000     0.000     0.000     0.000     0.000    0.34     0.00    0.00      0   -9.90   -9.00       17.6       31.8       31.9       31.9       31.9       31.9       31.9       31.9       31.9       31.9       31.9       31.9        0.0        0.0        0.0        0.0        0.0        0.0        0.0        0.0        0.0        0.0        0.0        0.0      0.0       3.1      27.1      30.4      33.7    387.43
    20     7  2009    19     2     367.6     1.8      0.0    0.0    1.8    0.0      0.0      0.0   -9.90      3.4      2.5     73      0.0      0.0   100      3.4     2.5      74     20.6    0.35      4      0      0      0     45     0.7     0.4      0     0.01      0.0      0.0      0.0   100    34.2     0.025    -9.9    0.000      44        0.00     367.6    240.0    0.35    96.1     154.9     111.3     102.5      80.8      80.8      69.8    0.000     0.000     0.000     0.000     0.000    0.35     0.00    0.00      0   -9.90   -9.00       16.9       31.7       31.9       31.9       31.9       31.9       31.9       31.9       31.9       31.9       31.9       31.9        0.0        0.0        0.0        0.0        0.0        0.0        0.0        0.0        0.0        0.0        0.0        0.0      1.8       3.1      27.3      30.9      34.4    387.43
    21     7  2009    20     2     369.5     6.7      0.0    0.0    6.6    0.1      0.0      0.0   -9.90      4.7      4.7    100      0.1      0.1   100      4.7     4.7     100     16.9    0.36      1      0      0      0     45     0.8     0.5      0     0.01      0.1      0.1      0.0   100    34.2     0.029    -9.9    0.000      42        0.00     369.5    241.9    0.36   100.1     157.8     113.4     106.3      83.5      83.5      71.1    0.000     0.000     0.000     0.000     0.000    0.36     0.00    0.00      0   -9.90   -9.00       18.9       31.7       31.9       31.9       31.9       31.9       31.9       31.9       31.9       31.9       31.9       31.9        0.0        0.0        0.0        0.0        0.0        0.0        0.0        0.0        0.0        0.0        0.0        0.0      6.7       4.3      19.9      27.2      34.5    387.43
    22     7  2009    21     2     366.7     0.0      0.0    0.0    0.0    0.0      0.0      0.0   -9.90      4.0      2.7     68      0.1      0.1   100      4.1     2.8      68     19.5    0.36      5      0      0      0     45     0.9     0.5      0     0.02      0.1      0.1      0.0   100    34.2     0.033    -9.9    0.000      40        0.00     366.7    239.1    0.36    99.4     160.7     115.5     107.3      84.4      84.4      72.4    0.000     0.000     0.000     0.000     0.000    0.36     0.00    0.00      0   -9.90   -9.00       16.1       31.6       31.9       31.9       31.9       31.9       31.9       31.9       31.9       31.9       31.9       31.9        0.0        0.0        0.0        0.0        0.0        0.0        0.0        0.0        0.0        0.0        0.0        0.0      0.0       3.7      25.0      29.8      34.5    387.43
    23     7  2009    22     2     365.4     0.0      0.0    0.0    0.0    0.0      0.0      0.0   -9.90      4.1      1.3     31      0.1      0.1   100      4.2     1.3      32     20.1    0.37      9      0      0      0     45     1.0     0.5      0     0.02      0.1      0.1      0.1   100    34.2     0.038    -9.9    0.000      38        0.00     365.4    237.8    0.37   100.1     163.6     117.5     109.4      86.1      86.1      73.7    0.000     0.000     0.000     0.000     0.000    0.37     0.00    0.00      0   -9.90   -9.00       14.9       31.5       31.9       31.9       31.9       31.9       31.9       31.9       31.9       31.9       31.9       31.9        0.0        0.0        0.0        0.0        0.0        0.0        0.0        0.0        0.0        0.0        0.0        0.0      0.0       3.8      26.2      31.1      36.1    387.43
    24     7  2009    23     2     365.2     3.4      0.0    0.0    3.4    0.0      0.0      0.0   -9.90      3.9      3.5     91      0.1      0.1   100      4.0     3.6      91     20.8    0.37      5      0      0      0     45     1.1     0.6      0     0.02      0.1      0.1      0.1   100    34.2     0.043    -9.9    0.000      36        0.00     365.2    237.6    0.37   102.0     166.4     119.6     111.0      87.3      87.3      75.0    0.000     0.000     0.000     0.000     0.000    0.37     0.00    0.00      0   -9.90   -9.00       14.7       31.5       31.9       31.9       31.9       31.9       31.9       31.9       31.9       31.9       31.9       31.9        0.0        0.0        0.0        0.0        0.0        0.0        0.0        0.0        0.0        0.0        0.0        0.0      3.4       3.6      27.5      31.8      36.0    387.43
    25     7  2009    24     2     365.1     3.4      0.0    0.0    3.4    0.0      0.0      0.0   -9.90      3.6      3.4     97      0.1      0.1   100      3.6     3.5      97     20.7    0.38      4      0      0      0     45     1.2     0.7      0     0.02      0.1      0.1      0.1   100    34.2     0.048    -9.9    0.000      34        0.00     365.1    237.5    0.38   103.9     169.2     121.6     112.3      88.5      88.5      76.2    0.000     0.000     0.000     0.000     0.000    0.38     0.00    0.00      0   -9.90   -9.00       14.7       31.4       31.9       31.9       31.9       31.9       31.9       31.9       31.9       31.9       31.9       31.9        0.0        0.0        0.0        0.0        0.0        0.0        0.0        0.0        0.0        0.0        0.0        0.0      3.4       3.3      27.4      31.0      34.6    387.43
    26     7  2009    25     2     364.1     0.0      0.0    0.0    0.0    0.0      0.0      0.0   -9.90      3.8      0.9     24      0.1      0.1   100      3.8     1.0      25     20.5    0.39     10      0      0      0     45     1.3     0.7      0     0.02      0.1      0.1      0.1   100    34.2     0.054    -9.9    0.000      32        0.00     364.1    236.5    0.39   104.9     172.0     123.6     114.5      90.1      90.1      77.5    0.000     0.000     0.000     0.000     0.000    0.39     0.00    0.00      0   -9.90   -9.00       13.8       31.3       31.9       31.9       31.9       31.9       31.9       31.9       31.9       31.9       31.9       31.9        0.0        0.0        0.0        0.0        0.0        0.0        0.0        0.0        0.0        0.0        0.0        0.0      0.0       3.5      27.0      31.1      35.1    387.43
    27     7  2009    26     2     372.6    13.6      0.0    0.0   12.6    1.0      0.0      0.0   -9.90      4.0      4.0    100      0.1      0.1   100      4.1     4.1     100     19.3    0.39      0      0      0      0     45     1.5     0.8      0     0.03      0.1      0.1      0.1   100    34.2     0.061    -9.9    0.000      31        0.00     372.6    245.0    0.39   115.4     174.7     125.5     116.7      91.8      91.8      78.7    0.000     0.000     0.000     0.000     0.000    0.39     0.00    0.00      0   -9.90   -9.00       22.3       31.3       31.9       31.9       31.9       31.9       31.9       31.9       31.9       31.9       31.9       31.9        0.0        0.0        0.0        0.0        0.0        0.0        0.0        0.0        0.0        0.0        0.0        0.0     13.6       3.7      24.5      29.4      34.2    387.43
    28     7  2009    27     2     368.9     0.0      0.0    0.0    0.0    0.0      0.0      0.0   -9.90      3.6      3.6    100      0.1      0.1   100      3.7     3.7     100     20.0    0.40      0      0      0      0     45     1.7     0.9      0     0.03      0.1      0.1      0.1   100    34.2     0.068    -9.9    0.000      29        0.00     368.9    241.3    0.40   113.6     177.4     127.5     117.9      92.9      92.9      79.9    0.000     0.000     0.000     0.000     0.000    0.40     0.00    0.00      0   -9.90   -9.00       18.7       31.2       31.9       31.9       31.9       31.9       31.9       31.9       31.9       31.9       31.9       31.9        0.0        0.0        0.0        0.0        0.0        0.0        0.0        0.0        0.0        0.0        0.0        0.0      0.0       3.4      26.0      30.1      34.2    387.43
    29     7  2009    28     2     369.3     4.6      0.0    0.0    4.6    0.0      0.0      0.0   -9.90      4.0      4.0    100      0.1      0.1   100      4.2     4.2     100     18.2    0.41      0      0      0      0     45     1.8     1.0      0     0.03      0.1      0.1      0.1   100    34.2     0.076    -9.9    0.000      28        0.00     369.3    241.7    0.41   115.9     180.1     129.4     120.5      94.7      94.7      81.1    0.000     0.000     0.000     0.000     0.000    0.41     0.00    0.00      0   -9.90   -9.00       19.2       31.1       31.9       31.9       31.9       31.9       31.9       31.9       31.9       31.9       31.9       31.9        0.0        0.0        0.0        0.0        0.0        0.0        0.0        0.0        0.0        0.0        0.0        0.0      4.6       3.8      22.4      27.8      33.1    387.43
    30     7  2009    29     2     373.4     9.0      0.0    0.0    8.7    0.3      0.0      0.0   -9.90      4.5      4.5    100      0.2      0.2   100      4.6     4.6     100     18.3    0.41      0      0      0      0     45     2.0     1.1      0     0.04      0.2      0.2      0.1   100    34.2     0.086    -9.9    0.000      26        0.00     373.4    245.8    0.41   121.9     182.8     131.3     123.0      96.6      96.6      82.3    0.000     0.000     0.000     0.000     0.000    0.41     0.00    0.00      0   -9.90   -9.00       23.3       31.1       31.9       31.9       31.9       31.9       31.9       31.9       31.9       31.9       31.9       31.9        0.0        0.0        0.0        0.0        0.0        0.0        0.0        0.0        0.0        0.0        0.0        0.0      9.0       4.2      22.5      28.5      34.5    387.43
    31     7  2009    30     2     373.9     4.6      0.0    0.0    4.6    0.0      0.0      0.0   -9.90      3.9      3.9    100      0.1      0.1   100      4.1     4.1     100     19.5    0.42      0      0      0      0     45     2.3     1.2      0     0.04      0.1      0.1      0.1   100    34.2     0.096    -9.9    0.000      25        0.00     373.9    246.3    0.42   124.3     185.4     133.2     123.8      97.4      97.4      83.5    0.000     0.000     0.000     0.000     0.000    0.42     0.00    0.00      0   -9.90   -9.00       23.8       31.1       31.9       31.9       31.9       31.9       31.9       31.9       31.9       31.9       31.9       31.9        0.0        0.0        0.0        0.0        0.0        0.0        0.0        0.0        0.0        0.0        0.0        0.0      4.6       3.7      25.0      29.6      34.2    387.43
     1     8  2009    31     2     370.6     0.0      0.0    0.0    0.0    0.0      0.0      0.0   -9.90      3.8      3.2     84      0.2      0.2   100      4.0     3.3      85     20.1    0.42      0      0      0      0     45     2.5     1.4      0     0.04      0.2      0.2      0.1   100    34.2     0.107    -9.9    0.000      24        0.00     370.6    243.0    0.42   122.8     188.0     135.1     125.4      98.7      98.7      84.7    0.000     0.000     0.000     0.000     0.000    0.42     0.00    0.00      0   -9.90   -9.00       20.5       31.1       31.9       31.9       31.9       31.9       31.9       31.9       31.9       31.9       31.9       31.9        0.0        0.0        0.0        0.0        0.0        0.0        0.0        0.0        0.0        0.0        0.0        0.0      0.0       3.6      26.3      30.5      34.8    387.43
     2     8  2009    32     2     373.8     7.8      0.0    0.0    7.6    0.2      0.0      0.0   -9.90      4.2      4.2    100      0.2      0.2   100      4.4     4.4     100     18.6    0.43      0      0      0      0     45     2.8     1.5      0     0.05      0.2      0.2      0.1   100    34.2     0.119    -9.9    0.000      23        0.00     373.8    246.2    0.43   127.9     190.6     136.9     127.9     100.5     100.5      85.9    0.000     0.000     0.000     0.000     0.000    0.43     0.00    0.00      0   -9.90   -9.00       23.7       31.1       31.9       31.9       31.9       31.9       31.9       31.9       31.9       31.9       31.9       31.9        0.0        0.0        0.0        0.0        0.0        0.0        0.0        0.0        0.0        0.0        0.0        0.0      7.8       4.0      23.3      28.7      34.1    387.43
     3     8  2009    33     2     379.7    11.8      0.0    0.0   10.5    1.3      0.0      0.0   -9.90      4.4      4.4    100      0.2      0.2   100      4.6     4.6     100     17.4    0.44      0      0      0      0     45     3.1     1.7      0     0.06      0.2      0.2      0.2   100    34.2     0.133    -9.9    0.000      22        0.00     379.7    252.1    0.44   135.7     193.2     138.8     130.0     102.1     102.1      87.0    0.000     0.000     0.000     0.000     0.000    0.44     0.00    0.00      0   -9.90   -9.00       29.6       31.1       31.9       31.9       31.9       31.9       31.9       31.9       31.9       31.9       31.9       31.9        0.0        0.0        0.0        0.0        0.0        0.0        0.0        0.0        0.0        0.0        0.0        0.0     11.8       4.2      20.8      27.2      33.6    387.43
     4     8  2009    34     2     375.4     0.0      0.0    0.0    0.0    0.0      0.0      0.0   -9.90      4.0      4.0    100      0.2      0.2   100      4.3     4.3     100     19.3    0.44      0      0      0      0     45     3.5     1.9      0     0.06      0.2      0.2      0.2   100    34.2     0.149    -9.9    0.000      21        0.00     375.4    247.8    0.44   133.3     195.7     140.6     131.1     103.1     103.1      88.2    0.000     0.000     0.000     0.000     0.000    0.44     0.00    0.00      0   -9.90   -9.00       25.4       31.1       31.9       31.9       31.9       31.9       31.9       31.9       31.9       31.9       31.9       31.9        0.0        0.0        0.0        0.0        0.0        0.0        0.0        0.0        0.0        0.0        0.0        0.0      0.0       3.9      24.5      29.4      34.3    387.43
     5     8  2009    35     2     378.2     7.8      0.0    0.0    7.3    0.5      0.0      0.0   -9.90      4.2      4.2    100      0.3      0.3   100      4.5     4.5     100     19.1    0.45      0      0      0      0     45     3.9     2.1      0     0.07      0.3      0.3      0.2   100    34.2     0.166    -9.9    0.000      20        0.00     378.2    250.6    0.45   137.9     198.3     142.4     133.2     104.7     104.7      89.3    0.000     0.000     0.000     0.000     0.000    0.45     0.00    0.00      0   -9.90   -9.00       28.1       31.1       31.9       31.9       31.9       31.9       31.9       31.9       31.9       31.9       31.9       31.9        0.0        0.0        0.0        0.0        0.0        0.0        0.0        0.0        0.0        0.0        0.0        0.0      7.8       4.1      24.3      29.7      35.1    387.43
     6     8  2009    36     2     382.2     8.9      0.0    0.0    7.7    1.2      0.0      0.0   -9.90      3.5      3.5    100      0.3      0.3   100      3.7     3.7     100     19.8    0.45      0      0      0      0     45     4.4     2.4      0     0.08      0.3      0.3      0.2   100    34.2     0.185    -9.9    0.000      19        0.00     382.2    254.6    0.45   143.6     200.8     144.3     133.5     105.1     105.1      90.4    0.000     0.000     0.000     0.000     0.000    0.45     0.00    0.00      0   -9.90   -9.00       32.1       31.1       31.9       31.9       31.9       31.9       31.9       31.9       31.9       31.9       31.9       31.9        0.0        0.0        0.0        0.0        0.0        0.0        0.0        0.0        0.0        0.0        0.0        0.0      8.9       3.4      25.5      29.2      32.9    387.43
     7     8  2009    37     2     382.8     6.0      0.0    0.0    4.7    1.3      0.0      0.0   -9.90      3.7      3.7    100      0.3      0.3   100      4.1     4.1     100     18.9    0.46      0      0      0      0     45     4.9     2.7      0     0.09      0.3      0.3      0.2   100    34.2     0.206    -9.9    0.000      18        0.00     382.8    255.2    0.46   146.1     203.3     146.0     135.8     106.8     106.8      91.6    0.000     0.000     0.000     0.000     0.000    0.46     0.00    0.00      0   -9.90   -9.00       32.7       31.2       31.9       31.9       31.9       31.9       31.9       31.9       31.9       31.9       31.9       31.9        0.0        0.0        0.0        0.0        0.0        0.0        0.0        0.0        0.0        0.0        0.0        0.0      6.0       3.7      23.9      28.4      33.0    387.43
     8     8  2009    38     2     383.5     6.0      0.0    0.0    4.7    1.3      0.0      0.0   -9.90      3.7      3.7    100      0.4      0.4   100      4.1     4.1     100     19.0    0.46      0      0      0      0     45     5.5     3.0      0     0.10      0.4      0.4      0.3   100    34.2     0.230    -9.9    0.000      18        0.00     383.5    255.9    0.46   148.6     205.8     147.8     137.4     108.1     108.1      92.7    0.000     0.000     0.000     0.000     0.000    0.46     0.00    0.00      0   -9.90   -9.00       33.0       31.5       31.9       31.9       31.9       31.9       31.9       31.9       31.9       31.9       31.9       31.9        0.0        0.0        0.0        0.0        0.0        0.0        0.0        0.0        0.0        0.0        0.0        0.0      6.0       3.7      24.0      28.5      33.0    387.43
     9     8  2009    39     2     382.3     2.9      0.0    0.0    2.7    0.2      0.0      0.0   -9.90      3.6      3.5     99      0.4      0.4   100      3.9     3.9      99     19.0    0.47      0      0      0      0     45     6.1     3.4      0     0.11      0.4      0.4      0.3   100    34.2     0.256    -9.9    0.000      18        0.00     382.3    254.7    0.47   149.1     208.2     149.6     138.8     109.3     109.3      93.8    0.000     0.000     0.000     0.000     0.000    0.47     0.00    0.00      0   -9.90   -9.00       31.3       32.0       31.9       31.9       31.9       31.9       31.9       31.9       31.9       31.9       31.9       31.9        0.0        0.0        0.0        0.0        0.0        0.0        0.0        0.0        0.0        0.0        0.0        0.0      2.9       3.6      24.0      28.3      32.5    387.43
    10     8  2009    40     2     379.3     0.0      0.0    0.0    0.0    0.0      0.0      0.0   -9.90      3.4      2.5     74      0.4      0.4   100      3.8     2.9      77     20.0    0.47      0      0      0      0     45     6.9     3.8      0     0.12      0.4      0.4      0.3   100    34.2     0.286    -9.9    0.000      18        0.00     379.3    251.7    0.47   147.9     210.7     151.4     140.3     110.4     110.4      94.9    0.000     0.000     0.000     0.000     0.000    0.47     0.00    0.00      0   -9.90   -9.00       28.4       31.9       31.9       31.9       31.9       31.9       31.9       31.9       31.9       31.9       31.9       31.9        0.0        0.0        0.0        0.0        0.0        0.0        0.0        0.0        0.0        0.0        0.0        0.0      0.0       3.5      26.0      29.9      33.8    387.43
    11     8  2009    41     2     382.1     8.3      0.0    0.0    7.1    1.2      0.0      0.0   -9.90      3.8      3.8    100      0.5      0.5   100      4.4     4.4     100     18.5    0.48      0      0      0      0     45     7.7     4.2      0     0.13      0.5      0.5      0.4   100    34.1     0.318    -9.9    0.000      18        0.00     382.1    254.5    0.48   152.3     213.1     153.1     143.0     112.4     112.4      96.0    0.000     0.000     0.000     0.000     0.000    0.48     0.00    0.00      0   -9.90   -9.00       31.1       31.9       31.9       31.9       31.9       31.9       31.9       31.9       31.9       31.9       31.9       31.9        0.0        0.0        0.0        0.0        0.0        0.0        0.0        0.0        0.0        0.0        0.0        0.0      8.3       4.0      23.0      28.3      33.5    387.43
    12     8  2009    42     2     386.0    12.5      0.0    0.0    8.2    4.3      0.0      0.0   -9.90      3.6      3.6    100      0.6      0.6   100      4.2     4.2     100     19.1    0.49      0      0      0      0     45     8.6     4.7      0     0.15      0.6      0.6      0.4   100    34.1     0.355    -9.9    0.000      18        0.00     386.0    258.4    0.49   158.1     215.5     154.8     144.1     113.4     113.4      97.1    0.000     0.000     0.000     0.000     0.000    0.49     0.00    0.00      0   -9.90   -9.00       35.1       31.9       31.9       31.9       31.9       31.9       31.9       31.9       31.9       31.9       31.9       31.9        0.0        0.0        0.0        0.0        0.0        0.0        0.0        0.0        0.0        0.0        0.0        0.0     12.5       3.8      24.2      28.9      33.6    387.43
    13     8  2009    43     2     387.4     8.3      0.0    0.0    5.9    2.4      0.0      0.0   -9.90      3.9      3.9    100      0.7      0.7   100      4.6     4.6     100     17.8    0.49      0      0      0      0     45     9.7     5.3      0     0.16      0.7      0.7      0.5   100    34.1     0.395    -9.9    0.000      19        0.00     387.4    259.7    0.49   161.0     217.9     156.6     146.6     115.2     115.2      98.2    0.000     0.000     0.000     0.000     0.000    0.49     0.00    0.00      0   -9.90   -9.00       35.0       32.7       32.3       32.0       32.0       31.9       31.9       31.9       31.9       31.9       31.9       31.9        0.0        0.0        0.0        0.0        0.0        0.0        0.0        0.0        0.0        0.0        0.0        0.0      8.3       4.2      21.5      27.1      32.8    387.43
    14     8  2009    44     2     383.6     0.0      0.0    0.0    0.0    0.0      0.1      0.0   -9.90      3.1      3.0     98      0.6      0.6   100      3.7     3.6      98     20.1    0.50      0      0      0      0     45    10.7     5.9      0     0.18      0.6      0.6      0.4   100    34.1     0.440    -9.9    0.000      19        0.00     383.6    255.9    0.50   158.7     220.3     158.3     146.5     115.4     115.4      99.2    0.000     0.000     0.000     0.000     0.000    0.50     0.00    0.00      0   -9.90   -9.00       30.0       33.1       32.5       32.2       32.1       32.0       32.0       31.9       31.9       31.9       31.9       31.9        0.0        0.0        0.0        0.0        0.0        0.0        0.0        0.0        0.0        0.0        0.0        0.0      0.0       3.4      26.3      29.7      33.1    387.43
    15     8  2009    45     2     383.1     4.8      0.0    0.0    4.3    0.5      0.4      0.0   -9.90      3.6      3.6    100      0.8      0.8   100      4.4     4.4     100     17.8    0.50      0      0      0      0     45    11.6     6.4      0     0.19      0.8      0.8      0.6   100    34.1     0.488    -9.9    0.000      20        0.00     383.1    255.3    0.50   159.7     222.7     160.0     149.4     117.4     117.4     100.3    0.000     0.000     0.000     0.000     0.000    0.50     0.00    0.00      0   -9.90   -9.00       29.9       32.6       32.3       32.2       32.1       32.1       32.0       32.0       32.0       32.0       32.0       31.9        0.0        0.0        0.0        0.0        0.0        0.0        0.0        0.0        0.0        0.0        0.0        0.0      4.8       4.0      21.6      26.8      32.0    387.43
    16     8  2009    46     2     378.3     0.0      0.0    0.0    0.0    0.0      0.5      0.0   -9.90      3.9      3.4     87      0.9      0.9   100      4.8     4.3      90     16.9    0.51      0      0      0      0     45    12.4     6.8      0     0.21      0.9      0.9      0.7   100    34.1     0.538    -9.9    0.000      20        0.00     378.3    250.4    0.51   156.4     225.1     161.7     151.9     119.2     119.2     101.4    0.000     0.000     0.000     0.000     0.000    0.51     0.00    0.00      0   -9.90   -9.00       25.6       32.3       32.1       32.1       32.1       32.1       32.0       32.0       32.0       32.0       32.0       32.0        0.0        0.0        0.0        0.0        0.0        0.0        0.0        0.0        0.0        0.0        0.0        0.0      0.0       4.4      19.8      26.3      32.8    387.43
    17     8  2009    47     2     378.5     5.3      0.0    0.0    5.1    0.2      0.6      0.0   -9.90      3.5      3.5    100      0.9      0.9   100      4.4     4.4     100     19.0    0.51      0      0      0      0     45    13.0     7.2      0     0.22      0.9      0.9      0.6   100    34.0     0.591    -9.9    0.000      21        0.00     378.5    250.6    0.51   158.5     227.4     163.4     152.6     119.9     119.9     102.4    0.000     0.000     0.000     0.000     0.000    0.51     0.00    0.00      0   -9.90   -9.00       26.4       32.1       32.0       32.0       32.0       32.0       32.0       32.0       32.0       32.0       32.0       32.0        0.0        0.0        0.0        0.0        0.0        0.0        0.0        0.0        0.0        0.0        0.0        0.0      5.3       4.0      24.0      28.8      33.6    387.43
    18     8  2009    48     2     378.5     5.3      0.0    0.0    5.1    0.2      0.5      0.0   -9.90      3.6      3.6    100      0.9      0.9   100      4.6     4.6     100     18.9    0.52      0      0      0      0     45    13.6     7.5      0     0.23      0.9      0.9      0.7   100    34.0     0.646    -9.9    0.000      21        0.00     378.5    250.7    0.52   160.4     229.8     165.1     154.6     121.4     121.4     103.5    0.000     0.000     0.000     0.000     0.000    0.52     0.00    0.00      0   -9.90   -9.00       26.9       32.0       32.0       32.0       32.0       32.0       32.0       32.0       32.0       32.0       32.0       32.0        0.0        0.0        0.0        0.0        0.0        0.0        0.0        0.0        0.0        0.0        0.0        0.0      5.3       4.2      23.9      29.1      34.3    387.43
    19     8  2009    49     2     379.0     5.3      0.0    0.0    5.0    0.3      0.3      0.0   -9.90      3.3      3.3    100      0.9      0.9   100      4.2     4.2     100     17.9    0.52      0      0      0      0     45    14.1     7.8      0     0.23      0.9      0.9      0.7   100    34.0     0.703    -9.9    0.000      22        0.00     379.0    251.3    0.52   162.7     232.1     166.7     155.5     122.2     122.2     104.5    0.000     0.000     0.000     0.000     0.000    0.52     0.00    0.00      0   -9.90   -9.00       27.7       32.0       31.9       31.9       31.9       31.9       31.9       31.9       31.9       31.9       31.9       31.9        0.0        0.0        0.0        0.0        0.0        0.0        0.0        0.0        0.0        0.0        0.0        0.0      5.3       3.9      21.8      26.7      31.6    387.43
    20     8  2009    50     2     374.8     0.0      0.0    0.0    0.0    0.0      0.2      0.0   -9.90      3.2      3.1     96      0.9      0.9   100      4.1     4.0      97     20.3    0.53      0      0      0      0     45    14.5     8.0      0     0.24      0.9      0.9      0.7   100    33.9     0.761    -9.9    0.000      22        0.00     374.8    247.1    0.53   160.3     234.4     168.4     156.8     123.3     123.3     105.6    0.000     0.000     0.000     0.000     0.000    0.53     0.00    0.00      0   -9.90   -9.00       23.7       31.9       31.9       31.9       31.9       31.9       31.9       31.9       31.9       31.9       31.9       31.9        0.0        0.0        0.0        0.0        0.0        0.0        0.0        0.0        0.0        0.0        0.0        0.0      0.0       3.8      26.6      30.6      34.6    387.43
    21     8  2009    51     2     371.7     0.0      0.0    0.0    0.0    0.0      0.1      0.0   -9.90      3.4      2.1     61      1.0      1.0   100      4.3     3.0      70     19.8    0.53      0      0      0      0     45    14.9     8.2      0     0.25      1.0      1.0      0.7   100    33.8     0.821    -9.9    0.000      23        0.00     371.7    244.0    0.53   158.9     236.7     170.1     158.8     124.8     124.8     106.6    0.000     0.000     0.000     0.000     0.000    0.53     0.00    0.00      0   -9.90   -9.00       20.6       31.9       31.9       31.9       31.9       31.9       31.9       31.9       31.9       31.9       31.9       31.9        0.0        0.0        0.0        0.0        0.0        0.0        0.0        0.0        0.0        0.0        0.0        0.0      0.0       4.0      25.5      30.0      34.5    387.43
    22     8  2009    52     2     378.1    11.8      0.0    0.0   11.0    0.8      0.1      0.0   -9.90      3.5      3.5    100      1.1      1.1   100      4.6     4.6     100     18.0    0.54      0      0      0      0     45    15.2     8.4      0     0.25      1.1      1.1      0.8   100    33.8     0.881    -9.9    0.000      23        0.00     378.1    250.5    0.54   167.0     239.0     171.7     160.8     126.3     126.3     107.7    0.000     0.000     0.000     0.000     0.000    0.54     0.00    0.00      0   -9.90   -9.00       27.1       31.9       31.9       31.9       31.9       31.9       31.9       31.9       31.9       31.9       31.9       31.9        0.0        0.0        0.0        0.0        0.0        0.0        0.0        0.0        0.0        0.0        0.0        0.0     11.8       4.2      22.0      27.1      32.2    387.43
    23     8  2009    53     2     379.3     6.0      0.0    0.0    5.6    0.4      0.0      0.0   -9.90      3.3      3.3    100      1.0      1.0   100      4.3     4.3     100     18.2    0.54      0      0      0      0     45    15.5     8.5      0     0.25      1.0      1.0      0.7   100    33.7     0.942    -9.9    0.000      24        0.00     379.3    251.7    0.54   169.8     241.3     173.4     161.9     127.2     127.2     108.7    0.000     0.000     0.000     0.000     0.000    0.54     0.00    0.00      0   -9.90   -9.00       28.4       31.9       31.9       31.9       31.9       31.9       31.9       31.9       31.9       31.9       31.9       31.9        0.0        0.0        0.0        0.0        0.0        0.0        0.0        0.0        0.0        0.0        0.0        0.0      6.0       4.0      22.4      27.2      32.0    387.43
    24     8  2009    54     2     384.7    11.8      0.0    0.0    9.3    2.5      0.0      0.0   -9.90      3.0      3.0    100      0.9      0.9   100      3.9     3.9     100     19.4    0.55      0      0      0      0     45    15.7     8.6      0     0.26      0.9      0.9      0.7   100    33.7     1.004    -9.9    0.000      24        0.00     384.7    257.0    0.55   176.8     243.6     175.0     162.4     127.8     127.8     109.7    0.000     0.000     0.000     0.000     0.000    0.55     0.00    0.00      0   -9.90   -9.00       33.7       31.9       31.9       31.9       31.9       31.9       31.9       31.9       31.9       31.9       31.9       31.9        0.0        0.0        0.0        0.0        0.0        0.0        0.0        0.0        0.0        0.0        0.0        0.0     11.8       3.6      24.7      28.6      32.5    387.43
    25     8  2009    55     2     390.9    23.7      0.0    0.0   10.3   13.4      0.0      0.0   -9.90      3.1      3.1    100      1.0      1.0   100      4.0     4.0     100     18.8    0.55      0      0      0      0     45    15.9     8.7      0     0.26      1.0      1.0      0.7   100    33.6     1.067    -9.9    0.000      24        0.00     390.9    263.3    0.55   184.7     245.8     176.6     164.2     129.2     129.2     110.7    0.000     0.000     0.000     0.000     0.000    0.55     0.00    0.00      0   -9.90   -9.00       39.2       32.4       32.1       32.0       31.9       31.9       31.9       31.9       31.9       31.9       31.9       31.9        0.0        0.0        0.0        0.0        0.0        0.0        0.0        0.0        0.0        0.0        0.0        0.0     23.7       3.7      23.5      27.6      31.8    387.43
    26     8  2009    56     2     387.0     0.0      0.0    0.0    0.0    0.0      0.1      0.0   -9.90      2.9      2.9    100      0.9      0.9   100      3.8     3.8     100     19.4    0.56      0      0      0      0     45    16.0     8.8      0     0.26      0.9      0.9      0.7   100    33.5     1.129    -9.9    0.000      25        0.00     387.0    259.3    0.56   182.2     248.1     178.2     165.2     130.0     130.0     111.7    0.000     0.000     0.000     0.000     0.000    0.56     0.00    0.00      0   -9.90   -9.00       32.1       34.0       32.9       32.2       32.1       32.0       32.0       31.9       31.9       31.9       31.9       31.9        0.0        0.0        0.0        0.0        0.0        0.0        0.0        0.0        0.0        0.0        0.0        0.0      0.0       3.5      24.8      28.4      32.0    387.43
    27     8  2009    57     2     387.9     7.7      0.0    0.0    5.6    2.1      0.4      0.0   -9.90      3.3      3.3    100      1.1      1.1   100      4.3     4.3     100     20.4    0.56      0      0      0      0     45    16.2     8.9      0     0.26      1.1      1.1      0.8   100    33.4     1.192    -9.9    0.000      25        0.00     387.9    260.0    0.56   184.2     250.3     179.8     167.9     132.0     132.0     112.8    0.000     0.000     0.000     0.000     0.000    0.56     0.00    0.00      0   -9.90   -9.00       33.3       33.1       32.6       32.5       32.3       32.1       32.1       32.0       32.0       32.0       32.0       32.0        0.0        0.0        0.0        0.0        0.0        0.0        0.0        0.0        0.0        0.0        0.0        0.0      7.7       4.0      26.9      31.1      35.4    387.43
    28     8  2009    58     2     392.3    19.3      0.0    0.0    9.4    9.9      0.8      0.0   -9.90      3.2      3.2    100      1.0      1.0   100      4.2     4.2     100     18.6    0.57      0      0      0      0     45    16.3     9.0      0     0.27      1.0      1.0      0.7   100    33.3     1.255    -9.9    0.000      25        0.00     392.3    264.2    0.57   190.0     252.5     181.4     169.2     133.0     133.0     113.8    0.000     0.000     0.000     0.000     0.000    0.57     0.00    0.00      0   -9.90   -9.00       37.9       32.7       32.5       32.3       32.3       32.2       32.1       32.1       32.1       32.0       32.0       32.0        0.0        0.0        0.0        0.0        0.0        0.0        0.0        0.0        0.0        0.0        0.0        0.0     19.3       3.9      23.3      27.6      32.0    387.43
    29     8  2009    59     2     387.3     0.0      0.0    0.0    0.0    0.0      1.0      0.0   -9.90      3.0      3.0    100      1.0      1.0   100      4.0     4.0     100     19.8    0.57      0      0      0      0     45    16.4     9.0      0     0.27      1.0      1.0      0.7   100    33.2     1.318    -9.9    0.000      26        0.00     387.3    259.1    0.57   186.4     254.8     183.0     170.1     133.9     133.9     114.8    0.000     0.000     0.000     0.000     0.000    0.57     0.00    0.00      0   -9.90   -9.00       31.2       33.9       32.9       32.4       32.3       32.2       32.1       32.1       32.1       32.1       32.0       32.0        0.0        0.0        0.0        0.0        0.0        0.0        0.0        0.0        0.0        0.0        0.0        0.0      0.0       3.7      25.5      29.4      33.2    387.43
    30     8  2009    60     2     381.5     0.0      0.0    0.0    0.0    0.0      1.1      0.0   -9.90      3.5      3.5    100      1.2      1.2   100      4.7     4.7     100     19.8    0.58      0      0      0      0     45    16.4     9.0      0     0.27      1.2      1.2      0.8   100    33.0     1.382    -9.9    0.000      26        0.00     381.5    253.3    0.58   182.2     257.0     184.6     173.2     136.0     136.0     115.8    0.000     0.000     0.000     0.000     0.000    0.58     0.00    0.00      0   -9.90   -9.00       26.6       33.0       32.5       32.5       32.3       32.2       32.2       32.1       32.1       32.1       32.1       32.0        0.0        0.0        0.0        0.0        0.0        0.0        0.0        0.0        0.0        0.0        0.0        0.0      0.0       4.3      25.5      30.1      34.8    387.43
    31     8  2009    61     2     385.5    11.6      0.0    0.0    9.8    1.8      1.1      0.0   -9.90      3.5      3.5    100      1.2      1.2   100      4.7     4.7     100     17.9    0.58      0      0      0      0     45    16.5     9.1      0     0.27      1.2      1.2      0.8   100    32.9     1.445    -9.9    0.000      26        0.00     385.5    257.3    0.58   187.8     259.2     186.2     174.7     137.2     137.2     116.7    0.000     0.000     0.000     0.000     0.000    0.58     0.00    0.00      0   -9.90   -9.00       31.7       32.5       32.2       32.2       32.2       32.2       32.1       32.1       32.1       32.1       32.0       32.0        0.0        0.0        0.0        0.0        0.0        0.0        0.0        0.0        0.0        0.0        0.0        0.0     11.6       4.3      21.7      26.9      32.1    387.43
     1     9  2009    62     2     380.2     0.0      0.0    0.0    0.0    0.0      1.0      0.0   -9.90      3.3      3.3    100      1.1      1.1   100      4.3     4.3     100     19.5    0.59      0      0      0      0     45    16.5     9.1      0     0.27      1.1      1.1      0.8   100    32.8     1.508    -9.9    0.000      26        0.00     380.2    252.1    0.59   184.3     261.4     187.8     175.3     137.8     137.8     117.7    0.000     0.000     0.000     0.000     0.000    0.59     0.00    0.00      0   -9.90   -9.00       27.4       32.3       32.1       32.1       32.1       32.1       32.1       32.1       32.0       32.0       32.0       32.0        0.0        0.0        0.0        0.0        0.0        0.0        0.0        0.0        0.0        0.0        0.0        0.0      0.0       4.0      25.0      29.3      33.5    387.43
     2     9  2009    63     2     374.5     0.0      0.0    0.0    0.0    0.0      0.8      0.0   -9.90      3.7      3.7     99      1.2      1.2   100      5.0     5.0      99     18.5    0.59      0      0      0      0     45    16.6     9.1      0     0.27      1.2      1.2      0.9   100    32.7     1.571    -9.9    0.000      27        0.00     374.5    246.5    0.59   180.5     263.6     189.4     178.4     140.0     140.0     118.7    0.000     0.000     0.000     0.000     0.000    0.59     0.00    0.00      0   -9.90   -9.00       22.4       32.1       32.0       32.0       32.0       32.0       32.0       32.0       32.0       32.0       32.0       32.0        0.0        0.0        0.0        0.0        0.0        0.0        0.0        0.0        0.0        0.0        0.0        0.0      0.0       4.6      23.0      28.5      34.0    387.43
     3     9  2009    64     2     379.0    10.0      0.0    0.0    9.3    0.7      0.5      0.0   -9.90      3.3      3.3    100      1.1      1.1   100      4.3     4.3     100     18.0    0.60      0      0      0      0     45    16.6     9.1      0     0.27      1.1      1.1      0.8   100    32.5     1.633    -9.9    0.000      27        0.00     379.0    251.2    0.60   186.8     265.7     190.9     178.3     140.1     140.1     119.7    0.000     0.000     0.000     0.000     0.000    0.60     0.00    0.00      0   -9.90   -9.00       27.4       32.0       32.0       32.0       32.0       32.0       32.0       32.0       32.0       32.0       32.0       32.0        0.0        0.0        0.0        0.0        0.0        0.0        0.0        0.0        0.0        0.0        0.0        0.0     10.0       4.0      22.0      26.5      31.0    387.43
     4     9  2009    65     2     374.3     0.0      0.0    0.0    0.0    0.0      0.3      0.0   -9.90      3.3      3.3    100      1.1      1.1   100      4.4     4.4     100     19.8    0.60      0      0      0      0     45    16.7     9.2      0     0.27      1.1      1.1      0.8   100    32.4     1.696    -9.9    0.000      27        0.00     374.3    246.5    0.60   183.8     267.9     192.5     180.0     141.4     141.4     120.7    0.000     0.000     0.000     0.000     0.000    0.60     0.00    0.00      0   -9.90   -9.00       23.0       32.0       31.9       31.9       31.9       31.9       31.9       31.9       31.9       31.9       31.9       31.9        0.0        0.0        0.0        0.0        0.0        0.0        0.0        0.0        0.0        0.0        0.0        0.0      0.0       4.1      25.5      29.8      34.0    387.43
     5     9  2009    66     2     374.8     5.0      0.0    0.0    4.9    0.1      0.2      0.0   -9.90      3.2      3.2    100      1.0      1.0   100      4.2     4.2     100     18.4    0.61     -9      0      0      0     45    16.2     8.9      0     0.26      1.0      1.0      0.7   100    32.1     1.755    -9.9    0.000      27        0.00     374.8    247.1    0.61   186.0     270.1     194.0     180.9     142.3     142.3     121.7    0.000     0.000     0.000     0.000     0.000    0.61     0.00    0.00      0   -9.90   -9.00       23.7       31.9       31.9       31.9       31.9       31.9       31.9       31.9       31.9       31.9       31.9       31.9        0.0        0.0        0.0        0.0        0.0        0.0        0.0        0.0        0.0        0.0        0.0        0.0      5.0       3.9      22.7      26.9      31.1    387.43
     6     9  2009    67     3     386.9    20.0      0.0    0.0   15.9    4.1      0.1      0.0   -9.90      2.9      2.9    100      0.9      0.9   100      3.8     3.8     100     19.0    0.61      0      0      0      0     45    16.2     8.9      0     0.26      0.9      0.9      0.6   100    32.0     1.813    -9.9    0.000      27        0.00     386.9    259.2    0.61   199.6     272.2     195.6     181.3     142.7     142.7     122.6    0.000     0.000     0.000     0.000     0.000    0.61     0.00    0.00      0   -9.90   -9.00       35.9       31.9       31.9       31.9       31.9       31.9       31.9       31.9       31.9       31.9       31.9       31.9        0.0        0.0        0.0        0.0        0.0        0.0        0.0        0.0        0.0        0.0        0.0        0.0     20.0       3.5      24.0      27.4      30.7    387.43
     7     9  2009    68     3     385.7     4.0      0.0    0.0    3.5    0.5      0.1      0.0   -9.90      3.4      3.4    100      1.1      1.1   100      4.5     4.5     100     19.4    0.62      0      0      0      0     45    16.2     8.9      0     0.26      1.1      1.1      0.8   100    31.8     1.872    -9.9    0.000      27        0.00     385.7    258.1    0.62   200.0     274.4     197.1     184.6     145.0     145.0     123.6    0.000     0.000     0.000     0.000     0.000    0.62     0.00    0.00      0   -9.90   -9.00       33.1       32.9       32.3       32.0       32.0       31.9       31.9       31.9       31.9       31.9       31.9       31.9        0.0        0.0        0.0        0.0        0.0        0.0        0.0        0.0        0.0        0.0        0.0        0.0      4.0       4.2      24.8      29.3      33.8    387.43
     8     9  2009    69     3     382.2     0.0      0.0    0.0    0.0    0.0      0.2      0.0   -9.90      2.8      2.4     87      0.9      0.9   100      3.7     3.3      90     20.0    0.62      0      0      0      0     45    16.3     8.9      0     0.26      0.9      0.9      0.6   100    31.7     1.930    -9.9    0.000      27        0.00     382.2    254.5    0.62   197.9     276.5     198.7     183.8     144.8     144.8     124.6    0.000     0.000     0.000     0.000     0.000    0.62     0.00    0.00      0   -9.90   -9.00       29.2       32.6       32.5       32.2       32.1       32.0       32.0       32.0       31.9       31.9       31.9       31.9        0.0        0.0        0.0        0.0        0.0        0.0        0.0        0.0        0.0        0.0        0.0        0.0      0.0       3.4      26.0      29.0      32.0    387.43
     9     9  2009    70     3     387.6    12.0      0.0    0.0    9.1    2.9      0.4      0.0   -9.90      2.5      2.5    100      0.8      0.8   100      3.3     3.3     100     18.9    0.63      0      0      0      0     45    16.3     9.0      0     0.26      0.8      0.8      0.6   100    31.5     1.988     1.4    0.028      27        0.01     387.6    259.8    0.63   204.6     278.7     200.2     184.4     145.4     145.4     125.5    0.000     0.000     0.000     0.000     0.000    0.63     0.00    0.00      0   -9.90   -9.00       35.0       32.3       32.2       32.1       32.1       32.1       32.0       32.0       32.0       32.0       32.0       31.9        0.0        0.0        0.0        0.0        0.0        0.0        0.0        0.0        0.0        0.0        0.0        0.0     12.0       3.1      24.4      26.9      29.4    387.43
    10     9  2009    71     3     390.2    12.0      0.0    0.0    7.4    4.6      0.5      0.0   -9.90      3.4      3.4    100      1.1      1.1   100      4.4     4.4     100     19.3    0.63      0      0      0      0     45    16.3     9.0      0     0.26      1.1      1.1      0.8   100    31.4     2.046     1.6    0.033      27        0.01     390.2    262.3    0.63   208.6     280.8     201.7     188.6     148.2     148.2     126.5    0.000     0.000     0.000     0.000     0.000    0.63     0.00    0.00      0   -9.90   -9.00       36.7       32.9       32.4       32.2       32.1       32.1       32.0       32.0       32.0       32.0       32.0       32.0        0.0        0.0        0.0        0.0        0.0        0.0        0.0        0.0        0.0        0.0        0.0        0.0     12.0       4.1      24.5      28.6      32.8    387.43
    11     9  2009    72     3     391.7     9.4      0.0    0.0    6.4    3.0      0.6      0.0   -9.90      3.3      3.3    100      1.0      1.0   100      4.3     4.3     100     20.0    0.64      0      0      0      0     45    16.3     9.0      0     0.26      1.0      1.0      0.7   100    31.2     2.104     1.8    0.038      27        0.01     391.7    263.7    0.64   211.6     282.9     203.3     189.8     149.2     149.2     127.4    0.000     0.000     0.000     0.000     0.000    0.64     0.00    0.00      0   -9.90   -9.00       36.7       33.6       32.8       32.3       32.2       32.1       32.0       32.0       32.0       32.0       32.0       32.0        0.0        0.0        0.0        0.0        0.0        0.0        0.0        0.0        0.0        0.0        0.0        0.0      9.4       4.0      26.0      29.8      33.5    387.43
    12     9  2009    73     3     386.9     0.0      0.0    0.0    0.0    0.0      0.8      0.0   -9.90      3.0      3.0    100      0.9      0.9   100      4.0     4.0     100     19.8    0.64     -9      0      0      0     45    16.0     8.8      0     0.25      0.9      0.9      0.7   100    31.0     2.159     2.0    0.044      28        0.02     386.9    258.9    0.64   208.1     285.0     204.8     190.3     149.8     149.8     128.4    0.000     0.000     0.000     0.000     0.000    0.64     0.00    0.00      0   -9.90   -9.00       30.6       34.0       33.0       32.5       32.3       32.2       32.1       32.1       32.0       32.0       32.0       32.0        0.0        0.0        0.0        0.0        0.0        0.0        0.0        0.0        0.0        0.0        0.0        0.0      0.0       3.7      25.6      29.0      32.4    387.43
    13     9  2009    74     3     381.9     0.0      0.0    0.0    0.0    0.0      1.0      0.0   -9.90      3.5      2.9     84      1.1      1.1   100      4.5     4.0      88     19.8    0.65     -9      0      0      0     45    16.0     8.8      0     0.25      1.1      1.1      0.8   100    30.8     2.214     2.3    0.050      28        0.02     381.9    253.7    0.65   204.4     287.1     206.3     193.2     151.8     151.8     129.3    0.000     0.000     0.000     0.000     0.000    0.65     0.00    0.00      0   -9.90   -9.00       26.6       33.1       32.5       32.5       32.4       32.3       32.2       32.1       32.1       32.1       32.0       32.0        0.0        0.0        0.0        0.0        0.0        0.0        0.0        0.0        0.0        0.0        0.0        0.0      0.0       4.2      25.5      29.6      33.7    387.43
    14     9  2009    75     3     385.0     9.4      0.0    0.0    8.2    1.2      1.2      0.0   -9.90      3.0      3.0    100      0.9      0.9   100      3.9     3.9     100     20.4    0.65     -9      0      0      0     45    16.1     8.8      0     0.25      0.9      0.9      0.6   100    30.7     2.269     2.5    0.057      28        0.02     385.0    256.7    0.65   209.0     289.2     207.8     192.9     151.8     151.8     130.3    0.000     0.000     0.000     0.000     0.000    0.65     0.00    0.00      0   -9.90   -9.00       30.9       32.6       32.3       32.2       32.2       32.2       32.2       32.1       32.1       32.1       32.1       32.0        0.0        0.0        0.0        0.0        0.0        0.0        0.0        0.0        0.0        0.0        0.0        0.0      9.4       3.6      26.7      29.8      32.8    387.43
    15     9  2009    76     3     379.0     0.0      0.0    0.0    0.0    0.0      1.1      0.0   -9.90      3.8      3.8    100      1.2      1.2   100      4.9     4.9     100     19.7    0.66     -9      0      0      0     45    16.1     8.8      0     0.25      1.2      1.2      0.8   100    30.5     2.324     2.8    0.066      28        0.02     379.0    250.8    0.66   204.6     291.3     209.3     197.2     154.7     154.7     131.2    0.000     0.000     0.000     0.000     0.000    0.66     0.00    0.00      0   -9.90   -9.00       26.0       32.3       32.1       32.1       32.1       32.1       32.1       32.1       32.1       32.1       32.0       32.0        0.0        0.0        0.0        0.0        0.0        0.0        0.0        0.0        0.0        0.0        0.0        0.0      0.0       4.6      25.4      30.2      35.0    387.43
    16     9  2009    77     3     384.0    12.7      0.0    0.0   10.7    2.0      0.8      0.0   -9.90      3.7      3.7    100      1.1      1.1   100      4.8     4.8     100     17.3    0.66     -9      0      0      0     45    16.1     8.9      0     0.25      1.1      1.1      0.8   100    30.3     2.379     3.2    0.075      28        0.03     384.0    256.0    0.66   211.5     293.4     210.8     198.3     155.6     155.6     132.2    0.000     0.000     0.000     0.000     0.000    0.66     0.00    0.00      0   -9.90   -9.00       31.8       32.1       32.0       32.0       32.0       32.0       32.0       32.0       32.0       32.0       32.0       32.0        0.0        0.0        0.0        0.0        0.0        0.0        0.0        0.0        0.0        0.0        0.0        0.0     12.7       4.5      20.6      25.9      31.2    387.43
    17     9  2009    78     3     379.6     0.0      0.0    0.0    0.0    0.0      0.5      0.0   -9.90      3.0      3.0    100      0.9      0.9   100      3.9     3.9     100     18.9    0.67     -9      0      0      0     45    16.1     8.9      0     0.25      0.9      0.9      0.6   100    30.1     2.433     3.5    0.086      28        0.03     379.6    251.8    0.67   208.8     295.5     212.3     197.0     155.1     155.1     133.1    0.000     0.000     0.000     0.000     0.000    0.67     0.00    0.00      0   -9.90   -9.00       28.0       32.0       32.0       32.0       32.0       32.0       32.0       32.0       32.0       32.0       32.0       32.0        0.0        0.0        0.0        0.0        0.0        0.0        0.0        0.0        0.0        0.0        0.0        0.0      0.0       3.6      23.8      27.0      30.1    387.43
    18     9  2009    79     3     382.4     8.5      0.0    0.0    7.4    1.1      0.3      0.0   -9.90      3.3      3.3    100      1.0      1.0   100      4.3     4.3     100     19.5    0.67     -9      0      0      0     45    16.1     8.9      0     0.25      1.0      1.0      0.7   100    29.9     2.487     3.9    0.098      28        0.03     382.4    254.7    0.67   213.2     297.5     213.8     199.6     156.9     156.9     134.0    0.000     0.000     0.000     0.000     0.000    0.67     0.00    0.00      0   -9.90   -9.00       31.1       32.0       31.9       31.9       31.9       31.9       31.9       31.9       31.9       31.9       31.9       31.9        0.0        0.0        0.0        0.0        0.0        0.0        0.0        0.0        0.0        0.0        0.0        0.0      8.5       4.0      25.0      28.9      32.8    387.43
    19     9  2009    80     4     378.3     0.0      0.0    0.0    0.0    0.0      0.2      0.0   -9.90      3.0      3.0    100      0.9      0.9   100      3.9     3.9     100     19.8    0.67     -9      0      0      0     45    16.2     8.9      0     0.25      0.9      0.9      0.7   100    29.7     2.541     4.4    0.111      28        0.04     378.3    250.7    0.67   210.7     299.6     215.3     199.8     157.2     157.2     135.0    0.000     0.000     0.000     0.000     0.000    0.67     0.00    0.00      0   -9.90   -9.00       27.2       31.9       31.9       31.9       31.9       31.9       31.9       31.9       31.9       31.9       31.9       31.9        0.0        0.0        0.0        0.0        0.0        0.0        0.0        0.0        0.0        0.0        0.0        0.0      0.0       3.6      25.5      28.4      31.3    387.43
    20     9  2009    81     4     373.9     0.0      0.0    0.0    0.0    0.0      0.1      0.0   -9.90      3.5      3.2     91      1.1      1.1   100      4.6     4.3      93     20.4    0.68     -9      0      0      0     45    16.2     8.9      0     0.25      1.1      1.1      0.8   100    29.4     2.594     4.9    0.126      28        0.04     373.9    246.3    0.68   207.8     301.7     216.7     203.3     159.6     159.6     135.9    0.000     0.000     0.000     0.000     0.000    0.68     0.00    0.00      0   -9.90   -9.00       22.9       31.9       31.9       31.9       31.9       31.9       31.9       31.9       31.9       31.9       31.9       31.9        0.0        0.0        0.0        0.0        0.0        0.0        0.0        0.0        0.0        0.0        0.0        0.0      0.0       4.3      26.7      30.6      34.6    387.43
    21     9  2009    82     4     371.0     0.0      0.0    0.0    0.0    0.0      0.1      0.0   -9.90      3.3      1.8     55      1.0      1.0   100      4.3     2.8      66     20.9    0.68     -9      0      0      0     45    16.2     8.9      0     0.25      1.0      1.0      0.7   100    29.2     2.647     5.4    0.143      28        0.05     371.0    243.4    0.68   206.4     303.7     218.2     203.7     160.2     160.2     136.8    0.000     0.000     0.000     0.000     0.000    0.68     0.00    0.00      0   -9.90   -9.00       20.0       31.9       31.9       31.9       31.9       31.9       31.9       31.9       31.9       31.9       31.9       31.9        0.0        0.0        0.0        0.0        0.0        0.0        0.0        0.0        0.0        0.0        0.0        0.0      0.0       4.0      27.8      31.1      34.5    387.43
    22     9  2009    83     4     371.9     4.6      0.0    0.0    4.6    0.0      0.0      0.0   -9.90      2.8      2.8    100      0.9      0.9   100      3.7     3.7     100     19.4    0.69     -9      0      0      0     45    16.2     8.9      0     0.25      0.9      0.9      0.6   100    29.0     2.700     6.0    0.161      28        0.05     371.9    244.3    0.69   208.8     305.8     219.7     203.3     160.1     160.1     137.7    0.000     0.000     0.000     0.000     0.000    0.69     0.00    0.00      0   -9.90   -9.00       21.0       31.9       31.9       31.9       31.9       31.9       31.9       31.9       31.9       31.9       31.9       31.9        0.0        0.0        0.0        0.0        0.0        0.0        0.0        0.0        0.0        0.0        0.0        0.0      4.6       3.4      24.9      27.6      30.3    387.43
    23     9  2009    84     4     368.0     0.0      0.0    0.0    0.0    0.0      0.0      0.0   -9.90      3.5      2.8     79      1.1      1.1   100      4.6     3.9      84     19.3    0.69     -9      0      0      0     45    16.2     8.9      0     0.25      1.1      1.1      0.8   100    28.8     2.752     6.6    0.182      28        0.06     368.0    240.4    0.69   206.4     307.8     221.1     207.4     162.9     162.9     138.6    0.000     0.000     0.000     0.000     0.000    0.69     0.00    0.00      0   -9.90   -9.00       18.2       30.8       31.9       31.9       31.9       31.9       31.9       31.9       31.9       31.9       31.9       31.9        0.0        0.0        0.0        0.0        0.0        0.0        0.0        0.0        0.0        0.0        0.0        0.0      0.0       4.3      24.6      28.8      33.0    387.43
    24     9  2009    85     4     365.5     0.0      0.0    0.0    0.0    0.0      0.0      0.0   -9.90      3.5      1.4     41      1.1      1.1   100      4.6     2.5      55     20.0    0.70     -9      0      0      0     45    16.2     8.9      0     0.25      1.1      1.1      0.8   100    28.5     2.804     7.2    0.203      28        0.06     365.5    237.9    0.70   205.3     309.8     222.6     208.8     164.0     164.0     139.6    0.000     0.000     0.000     0.000     0.000    0.70     0.00    0.00      0   -9.90   -9.00       16.8       29.7       31.9       31.9       31.9       31.9       31.9       31.9       31.9       31.9       31.9       31.9        0.0        0.0        0.0        0.0        0.0        0.0        0.0        0.0        0.0        0.0        0.0        0.0      0.0       4.3      26.0      29.9      33.8    387.43
    25     9  2009    86     4     374.3    13.7      0.0    0.0   12.7    1.0      0.0      0.0   -9.90      3.0      3.0    100      0.9      0.9   100      3.9     3.9     100     18.9    0.70     -9      0      0      0     45    16.2     8.9      0     0.26      0.9      0.9      0.7   100    28.3     2.855     7.8    0.224      28        0.07     374.3    246.7    0.70   215.5     311.9     224.1     208.0     163.7     163.7     140.5    0.000     0.000     0.000     0.000     0.000    0.70     0.00    0.00      0   -9.90   -9.00       25.5       29.7       31.9       31.9       31.9       31.9       31.9       31.9       31.9       31.9       31.9       31.9        0.0        0.0        0.0        0.0        0.0        0.0        0.0        0.0        0.0        0.0        0.0        0.0     13.7       3.6      23.8      26.9      30.0    387.43
    26     9  2009    87     4     369.5     0.0      0.0    0.0    0.0    0.0      0.0      0.0   -9.90      3.6      3.6    100      1.1      1.1   100      4.7     4.7     100     19.8    0.71     -9      0      0      0     45    16.2     8.9      0     0.26      1.1      1.1      0.8   100    28.1     2.906     8.5    0.246      28        0.07     369.5    241.9    0.71   212.2     313.9     225.5     211.8     166.3     166.3     141.4    0.000     0.000     0.000     0.000     0.000    0.71     0.00    0.00      0   -9.90   -9.00       20.8       29.7       31.9       31.9       31.9       31.9       31.9       31.9       31.9       31.9       31.9       31.9        0.0        0.0        0.0        0.0        0.0        0.0        0.0        0.0        0.0        0.0        0.0        0.0      0.0       4.4      25.5      29.8      34.1    387.43
    27     9  2009    88     4     364.5     0.0      0.0    0.0    0.0    0.0      0.0      0.0   -9.90      4.3      3.7     87      1.3      1.3   100      5.6     5.1      90     19.0    0.71     -9      0      0      0     45    16.2     8.9      0     0.25      1.3      1.3      0.9   100    27.8     2.957     9.1    0.269      28        0.08     364.5    236.9    0.71   208.6     315.9     227.0     215.7     168.9     168.9     142.3    0.000     0.000     0.000     0.000     0.000    0.71     0.00    0.00      0   -9.90   -9.00       17.1       28.4       31.9       31.9       31.9       31.9       31.9       31.9       31.9       31.9       31.9       31.9        0.0        0.0        0.0        0.0        0.0        0.0        0.0        0.0        0.0        0.0        0.0        0.0      0.0       5.2      24.0      29.8      35.5    387.43
    28     9  2009    89     4     362.0     0.0      0.0    0.0    0.0    0.0      0.0      0.0   -9.90      4.3      1.2     27      1.3      1.3   100      5.6     2.5      44     20.5    0.72     -9      0      0      0     45    16.1     8.9      0     0.25      1.3      1.3      0.9   100    27.6     3.006     9.7    0.292      28        0.09     362.0    234.4    0.72   207.6     317.9     228.4     217.1     170.0     170.0     143.2    0.000     0.000     0.000     0.000     0.000    0.72     0.00    0.00      0   -9.90   -9.00       15.9       27.1       31.9       31.9       31.9       31.9       31.9       31.9       31.9       31.9       31.9       31.9        0.0        0.0        0.0        0.0        0.0        0.0        0.0        0.0        0.0        0.0        0.0        0.0      0.0       5.2      27.0      32.2      37.4    387.43
    29     9  2009    90     4     360.1     0.0      0.0    0.0    0.0    0.0      0.0      0.0   -9.90      3.8      0.8     20      1.2      1.2   100      4.9     1.9      39     21.2    0.72     -9      0      0      0     45    16.1     8.8      0     0.25      1.2      1.2      0.8   100    27.3     3.055    10.3    0.316      28        0.09     360.1    232.5    0.72   207.1     319.9     229.9     216.6     169.9     169.9     144.1    0.000     0.000     0.000     0.000     0.000    0.72     0.00    0.00      0   -9.90   -9.00       15.2       25.9       31.9       31.9       31.9       31.9       31.9       31.9       31.9       31.9       31.9       31.9        0.0        0.0        0.0        0.0        0.0        0.0        0.0        0.0        0.0        0.0        0.0        0.0      0.0       4.6      28.4      32.5      36.6    387.43
[...]
    19    10  2019   110     4     322.2     0.0      0.0    0.0    0.0    0.0      0.0      0.0   -9.90      3.7      0.2      5      0.8      0.8   100      4.5     1.0      22     20.5    0.80     -9      0      0      0     45    14.1     7.8      0     0.18      0.8      0.8      0.6   100    24.2     3.775    22.8    0.860      25        0.30     322.2    194.6    0.80   194.6     355.2     255.2     239.7     188.2     188.2     160.0    0.000     0.000     0.000     0.000     0.000    0.80     0.00    0.00      0   -9.90   -9.00       11.8       19.8       19.4       19.5       28.5       31.9       31.9       31.9       31.9       31.9       31.9       31.9        0.0        0.0        0.0        0.0        0.0        0.0        0.0        0.0        0.0        0.0        0.0        0.0      0.0       4.4      27.0      30.6      34.2    410.21
    20    10  2019   111     4     321.2     0.0      0.0    0.0    0.0    0.0      0.0      0.0   -9.90      4.0      0.2      5      0.8      0.8   100      4.8     1.0      21     20.4    0.80     -9      0      0      0     45    14.0     7.7      0     0.18      0.8      0.8      0.6   100    24.0     3.805    23.4    0.891      25        0.31     321.2    193.6    0.80   193.6     355.2     255.2     240.8     188.9     188.9     160.0    0.000     0.000     0.000     0.000     0.000    0.80     0.00    0.00      0   -9.90   -9.00       11.6       19.8       19.4       19.5       27.6       31.9       31.9       31.9       31.9       31.9       31.9       31.9        0.0        0.0        0.0        0.0        0.0        0.0        0.0        0.0        0.0        0.0        0.0        0.0      0.0       4.7      26.7      30.8      34.9    410.21
    21    10  2019   112     4     320.0     0.0      0.0    0.0    0.0    0.0      0.0      0.0   -9.90      4.9      0.2      5      1.0      1.0   100      5.9     1.2      21     18.4    0.80     -9      0      0      0     45    13.8     7.6      0     0.17      1.0      1.0      0.7   100    23.8     3.835    24.0    0.922      25        0.32     320.0    192.4    0.80   192.4     355.2     255.2     244.4     191.1     191.1     160.0    0.000     0.000     0.000     0.000     0.000    0.80     0.00    0.00      0   -9.90   -9.00       11.4       19.8       19.4       19.5       26.6       31.9       31.9       31.9       31.9       31.9       31.9       31.9        0.0        0.0        0.0        0.0        0.0        0.0        0.0        0.0        0.0        0.0        0.0        0.0      0.0       5.7      22.7      29.1      35.6    410.21
    22    10  2019   113     4     318.8     0.0      0.0    0.0    0.0    0.0      0.0      0.0   -9.90      4.8      0.2      5      1.0      1.0   100      5.7     1.2      20     19.0    0.80     -9      0      0      0     45    13.6     7.5      0     0.17      1.0      1.0      0.7   100    23.6     3.864    24.7    0.953      25        0.33     318.8    191.2    0.80   191.2     355.2     255.2     244.0     190.8     190.8     160.0    0.000     0.000     0.000     0.000     0.000    0.80     0.00    0.00      0   -9.90   -9.00       11.2       19.8       19.4       19.5       25.7       31.9       31.9       31.9       31.9       31.9       31.9       31.9        0.0        0.0        0.0        0.0        0.0        0.0        0.0        0.0        0.0        0.0        0.0        0.0      0.0       5.6      24.0      30.1      36.2    410.21
    23    10  2019   114     4     317.7     0.0      0.0    0.0    0.0    0.0      0.0      0.0   -9.90      4.5      0.2      5      0.9      0.9   100      5.4     1.1      20     19.0    0.80     -9      0      0      0     45    13.4     7.3      0     0.16      0.9      0.9      0.6   100    23.4     3.891    25.3    0.984      25        0.33     317.7    190.1    0.80   190.1     355.2     255.2     242.9     190.2     190.2     160.0    0.000     0.000     0.000     0.000     0.000    0.80     0.00    0.00      0   -9.90   -9.00       11.0       19.8       19.4       19.5       24.8       31.9       31.9       31.9       31.9       31.9       31.9       31.9        0.0        0.0        0.0        0.0        0.0        0.0        0.0        0.0        0.0        0.0        0.0        0.0      0.0       5.3      24.0      29.5      35.0    410.21
    24    10  2019   115     4     316.7     0.0      0.0    0.0    0.0    0.0      0.0      0.0   -9.90      4.3      0.2      4      0.8      0.8   100      5.1     1.0      19     19.0    0.80     -9      0      0      0     45    13.1     7.2      0     0.16      0.8      0.8      0.6   100    23.1     3.918    25.9    1.015      25        0.34     316.7    189.1    0.80   189.1     355.2     255.2     241.9     189.5     189.5     160.0    0.000     0.000     0.000     0.000     0.000    0.80     0.00    0.00      0   -9.90   -9.00       10.8       19.8       19.4       19.5       24.0       31.9       31.9       31.9       31.9       31.9       31.9       31.9        0.0        0.0        0.0        0.0        0.0        0.0        0.0        0.0        0.0        0.0        0.0        0.0      0.0       5.0      24.0      29.1      34.2    410.21
    25    10  2019   116     4     315.9     0.0      0.0    0.0    0.0    0.0      0.0      0.0   -9.90      4.0      0.2      4      0.7      0.7   100      4.7     0.9      19     19.5    0.80     -9      0      0      0     45    12.8     7.0      0     0.15      0.7      0.7      0.5   100    22.9     3.943    26.5    1.046      25        0.35     315.9    188.3    0.80   188.3     355.2     255.2     240.4     188.6     188.6     160.0    0.000     0.000     0.000     0.000     0.000    0.80     0.00    0.00      0   -9.90   -9.00       10.6       19.8       19.4       19.5       23.3       31.9       31.9       31.9       31.9       31.9       31.9       31.9        0.0        0.0        0.0        0.0        0.0        0.0        0.0        0.0        0.0        0.0        0.0        0.0      0.0       4.6      25.0      29.2      33.4    410.21
    26    10  2019   117     4     315.0     0.0      0.0    0.0    0.0    0.0      0.0      0.0   -9.90      4.1      0.2      4      0.7      0.7    97      4.8     0.8      17     20.0    0.80     -9      3      0      0     45    12.4     6.8      0     0.14      0.7      0.7      0.5    97    22.8     3.965    27.2    1.077      25        0.36     315.0    187.4    0.80   187.4     355.2     255.2     241.2     189.1     189.1     160.0    0.000     0.000     0.000     0.000     0.000    0.80     0.00    0.00      0   -9.90   -9.00       10.4       19.8       19.4       19.5       22.6       31.9       31.9       31.9       31.9       31.9       31.9       31.9        0.0        0.0        0.0        0.0        0.0        0.0        0.0        0.0        0.0        0.0        0.0        0.0      0.0       4.8      26.0      30.4      34.8    410.21
    27    10  2019   118     4     314.3     0.0      0.0    0.0    0.0    0.0      0.0      0.0   -9.90      4.0      0.2      4      0.6      0.6    95      4.6     0.8      16     20.0    0.80     -9      5      0      0     45    12.0     6.6      0     0.13      0.6      0.6      0.4    95    22.6     3.986    27.8    1.107      25        0.37     314.3    186.7    0.80   186.7     355.2     255.2     240.4     188.6     188.6     160.0    0.000     0.000     0.000     0.000     0.000    0.80     0.00    0.00      0   -9.90   -9.00       10.3       19.8       19.4       19.5       22.1       31.9       31.9       31.9       31.9       31.9       31.9       31.9        0.0        0.0        0.0        0.0        0.0        0.0        0.0        0.0        0.0        0.0        0.0        0.0      0.0       4.6      26.0      30.2      34.4    410.21
    28    10  2019   119     4     313.5     0.0      0.0    0.0    0.0    0.0      0.0      0.0   -9.90      4.8      0.2      4      0.7      0.6    87      5.5     0.8      14     18.2    0.80     -9     13      0      0     45    11.6     6.4      0     0.12      0.7      0.6      0.4    87    22.4     4.003    28.4    1.137      25        0.38     313.5    185.9    0.80   185.9     355.2     255.2     243.7     190.6     190.6     160.0    0.000     0.000     0.000     0.000     0.000    0.80     0.00    0.00      0   -9.90   -9.00       10.1       19.8       19.4       19.5       21.5       31.9       31.9       31.9       31.9       31.9       31.9       31.9        0.0        0.0        0.0        0.0        0.0        0.0        0.0        0.0        0.0        0.0        0.0        0.0      0.0       5.5      22.4      28.8      35.1    410.21
    29    10  2019   120     4     312.7     0.0      0.0    0.0    0.0    0.0      0.0      0.0   -9.90      5.1      0.2      4      0.7      0.5    82      5.8     0.8      13     17.3    0.80     -9     18      0      0     45    11.1     6.1      0     0.11      0.7      0.5      0.4    82    22.3     4.018    29.0    1.166      25        0.39     312.7    185.1    0.80   185.1     355.2     255.2     245.1     191.5     191.5     160.0    0.000     0.000     0.000     0.000     0.000    0.80     0.00    0.00      0   -9.90   -9.00       10.0       19.7       19.4       19.5       20.9       31.9       31.9       31.9       31.9       31.9       31.9       31.9        0.0        0.0        0.0        0.0        0.0        0.0        0.0        0.0        0.0        0.0        0.0        0.0      0.0       5.9      20.5      28.1      35.7    410.21
    30    10  2019   121     4     312.1     0.0      0.0    0.0    0.0    0.0      0.0      0.0   -9.90      4.3      0.2      4      0.5      0.4    85      4.8     0.6      12     20.1    0.80     -9     15      0      0     45    10.5     5.8      0     0.10      0.5      0.4      0.3    85    22.2     4.032    29.6    1.195      24        0.40     312.1    184.5    0.80   184.5     355.2     255.2     241.5     189.3     189.3     160.0    0.000     0.000     0.000     0.000     0.000    0.80     0.00    0.00      0   -9.90   -9.00       10.0       19.5       19.4       19.5       20.5       31.9       31.9       31.9       31.9       31.9       31.9       31.9        0.0        0.0        0.0        0.0        0.0        0.0        0.0        0.0        0.0        0.0        0.0        0.0      0.0       4.9      26.2      30.9      35.5    410.21
    31    10  2019   122     4     311.6     0.0      0.0    0.0    0.0    0.0      0.0      0.0   -9.90      4.9      0.2      4      0.5      0.4    79      5.4     0.6      11     18.0    0.80     -9     21      0      0     45     9.8     5.4      0     0.09      0.5      0.4      0.3    79    22.1     4.044    30.3    1.224      24        0.41     311.6    184.0    0.80   184.0     355.2     255.2     244.0     190.8     190.8     160.0    0.000     0.000     0.000     0.000     0.000    0.80     0.00    0.00      0   -9.90   -9.00       10.0       19.3       19.4       19.5       20.1       31.9       31.9       31.9       31.9       31.9       31.9       31.9        0.0        0.0        0.0        0.0        0.0        0.0        0.0        0.0        0.0        0.0        0.0        0.0      0.0       5.6      22.0      28.6      35.2    410.21
     1    11  2019   123     4     311.0     0.0      0.0    0.0    0.0    0.0      0.0      0.0   -9.90      5.1      0.2      4      0.4      0.3    76      5.6     0.5       9     18.0    0.80     -9     24      0      0     45     9.0     5.0      0     0.08      0.4      0.3      0.2    76    22.0     4.053    30.9    1.252      24        0.42     311.0    183.4    0.80   183.4     355.2     255.2     244.7     191.3     191.3     160.0    0.000     0.000     0.000     0.000     0.000    0.80     0.00    0.00      0   -9.90   -9.00       10.0       19.1       19.4       19.5       19.8       31.9       31.9       31.9       31.9       31.9       31.9       31.9        0.0        0.0        0.0        0.0        0.0        0.0        0.0        0.0        0.0        0.0        0.0        0.0      0.0       5.8      22.0      29.1      36.2    410.21
     2    11  2019   124     4     310.6     0.0      0.0    0.0    0.0    0.0      0.0      0.0   -9.90      5.4      0.2      4      0.4      0.3    73      5.7     0.5       8     17.7    0.80     -9     27      0      0     45     8.1     4.5      0     0.06      0.4      0.3      0.2    73    22.0     4.060    31.5    1.279      24        0.43     310.6    183.0    0.80   183.0     355.2     255.2     245.5     191.7     191.7     160.0    0.000     0.000     0.000     0.000     0.000    0.80     0.00    0.00      0   -9.90   -9.00       10.0       18.9       19.4       19.5       19.8       31.6       31.9       31.9       31.9       31.9       31.9       31.9        0.0        0.0        0.0        0.0        0.0        0.0        0.0        0.0        0.0        0.0        0.0        0.0      0.0       6.0      21.4      29.0      36.6    410.21
     3    11  2019   125     4     310.2     0.0      0.0    0.0    0.0    0.0      0.0      0.0   -9.90      4.8      0.2      3      0.3      0.2    76      5.0     0.4       7     19.8    0.80     -9     24      0      0     45     7.1     3.9      0     0.05      0.3      0.2      0.1    76    21.9     4.066    32.1    1.306      24        0.43     310.2    182.6    0.80   182.6     355.2     255.2     242.9     190.2     190.2     160.0    0.000     0.000     0.000     0.000     0.000    0.80     0.00    0.00      0   -9.90   -9.00       10.0       18.8       19.4       19.5       19.8       31.4       31.9       31.9       31.9       31.9       31.9       31.9        0.0        0.0        0.0        0.0        0.0        0.0        0.0        0.0        0.0        0.0        0.0        0.0      0.0       5.3      25.6      31.1      36.6    410.21
     4    11  2019   126     4     309.9     0.0      0.0    0.0    0.0    0.0      0.0      0.0   -9.90      5.3      0.2      3      0.2      0.1    72      5.5     0.3       6     19.8    0.80     -9     28      0      0     45     5.9     3.3      0     0.03      0.2      0.1      0.1    72    21.9     4.070    32.7    1.332      24        0.44     309.9    182.3    0.80   182.3     355.2     255.2     244.7     191.3     191.3     160.0    0.000     0.000     0.000     0.000     0.000    0.80     0.00    0.00      0   -9.90   -9.00       10.0       18.6       19.4       19.5       19.8       31.3       31.9       31.9       31.9       31.9       31.9       31.9        0.0        0.0        0.0        0.0        0.0        0.0        0.0        0.0        0.0        0.0        0.0        0.0      0.0       5.8      25.5      31.8      38.1    410.21
     5    11  2019   127     4     309.6     0.0      0.0    0.0    0.0    0.0      0.0      0.0   -9.90      5.1      0.2      3      0.1      0.1    73      5.2     0.3       5     19.0    0.80     -9     27      0      0     45     4.6     2.5      0     0.02      0.1      0.1      0.1    73    21.9     4.072    33.0    1.343      24        0.44     309.6    182.0    0.80   182.0     355.2     255.2     243.3     190.4     190.4     160.0    0.000     0.000     0.000     0.000     0.000    0.80     0.00    0.00      0   -9.90   -9.00       10.0       18.4       19.4       19.5       19.8       31.2       31.9       31.9       31.9       31.9       31.9       31.9        0.0        0.0        0.0        0.0        0.0        0.0        0.0        0.0        0.0        0.0        0.0        0.0      0.0       5.4      24.0      30.0      36.0    410.21
     6    11  2019   128     4     309.4     0.0      0.0    0.0    0.0    0.0      0.0      0.0   -9.90      5.0      0.2      3      0.0      0.0    73      5.1     0.2       4     20.1    0.80     -9     27      0      0     45     3.1     1.7      0     0.01      0.0      0.0      0.0    73    21.9     4.073    33.0    1.343      24        0.44     309.4    181.8    0.80   181.8     355.2     255.2     242.6     190.0     190.0     160.0    0.000     0.000     0.000     0.000     0.000    0.80     0.00    0.00      0   -9.90   -9.00       10.0       18.2       19.4       19.5       19.8       31.2       31.9       31.9       31.9       31.9       31.9       31.9        0.0        0.0        0.0        0.0        0.0        0.0        0.0        0.0        0.0        0.0        0.0        0.0      0.0       5.2      26.2      31.4      36.6    410.21
     7    11  2019   129     4     309.2     0.0      0.0    0.0    0.0    0.0      0.0      0.0   -9.90      6.4      0.2      3      0.0      0.0    66      6.4     0.2       3     15.4    0.80     -9     34      0      0     45     1.4     0.7      0     0.00      0.0      0.0      0.0    66    21.9     4.073    33.0    1.344      24        0.44     309.2    181.6    0.80   181.6     355.2     255.2     246.9     192.6     192.6     160.0    0.000     0.000     0.000     0.000     0.000    0.80     0.00    0.00      0   -9.90   -9.00       10.0       18.0       19.4       19.5       19.8       31.2       31.9       31.9       31.9       31.9       31.9       31.9        0.0        0.0        0.0        0.0        0.0        0.0        0.0        0.0        0.0        0.0        0.0        0.0      0.0       6.4      16.8      26.7      36.6    410.21
     8    11  2019    -9     0     309.0     0.0      0.0    0.0    0.0    0.0      0.0      0.0   -9.90      5.9      0.2      3      0.0      0.0   100      5.9     0.2       3     18.0    0.80     -9     -9      0      0     -9     0.0     0.0      0    -9.00      0.0      0.0      0.0   100    21.9     4.073    33.0    1.344      24        0.44     309.0    181.4    0.80   181.4     355.2     255.2     245.1     191.5     191.5     160.0    0.000     0.000     0.000     0.000     0.000    0.80     0.00    0.00      0   -9.90   -9.00       10.0       17.9       19.4       19.5       19.8       31.2       31.9       31.9       31.9       31.9       31.9       31.9        0.0        0.0        0.0        0.0        0.0        0.0        0.0        0.0        0.0        0.0        0.0        0.0      0.0       5.9      22.0      29.5      37.0    410.21
     9    11  2019    -9     0     308.9     0.0      0.0    0.0    0.0    0.0      0.0      0.0   -9.90      5.5      0.2      3      0.0      0.0   100      5.5     0.2       3     18.7    0.80     -9     -9      0      0     -9     0.0     0.0      0    -9.00      0.0      0.0      0.0   100    21.9     4.073    33.0    1.344      24        0.44     308.9    181.3    0.80   181.3     355.2     255.2     245.1     190.6     191.5     160.0    0.000     0.000     0.000     0.000     0.000    0.80     0.00    0.00      0   -9.90   -9.00       10.0       17.7       19.4       19.5       19.8       31.2       31.9       31.9       31.9       31.9       31.9       31.9        0.0        0.0        0.0        0.0        0.0        0.0        0.0        0.0        0.0        0.0        0.0        0.0      0.0       5.5      23.4      29.9      36.4    410.21
    10    11  2019    -9     0     308.7     0.0      0.0    0.0    0.0    0.0      0.0      0.0   -9.90      5.6      0.2      3      0.0      0.0   100      5.6     0.2       3     18.0    0.80     -9     -9      0      0     -9     0.0     0.0      0    -9.00      0.0      0.0      0.0   100    21.9     4.073    33.0    1.344      24        0.44     308.7    181.1    0.80   181.1     355.2     255.2     245.1     190.8     191.5     160.0    0.000     0.000     0.000     0.000     0.000    0.80     0.00    0.00      0   -9.90   -9.00       10.0       17.5       19.4       19.5       19.8       31.2       31.9       31.9       31.9       31.9       31.9       31.9        0.0        0.0        0.0        0.0        0.0        0.0        0.0        0.0        0.0        0.0        0.0        0.0      0.0       5.6      22.0      28.9      35.8    410.21
