AquaCrop 6.0 (March 2017) - Output created on (date) : 14/07/2022   at (time) : 11:09:19

    RunNr     Day1   Month1    Year1     Rain      ETo       GD     CO2      Irri   Infilt   Runoff    Drain   Upflow        E     E/Ex       Tr      TrW   Tr/Trx    SaltIn   SaltOut    SaltUp  SaltProf     Cycle   SaltStr  FertStr  WeedStr  TempStr   ExpStr   StoStr  BioMass  Brelative   HI     Yield     WPet     DayN   MonthN    YearN
                                           mm       mm    °C.day    ppm        mm       mm       mm       mm       mm       mm        %       mm       mm        %    ton/ha    ton/ha    ton/ha    ton/ha      days       %        %        %        %        %        %    ton/ha        %       %    ton/ha    kg/m3
   Tot(1)        2        7     2009    533.8    582.3   2551.7   387.43      0.0    390.5    143.3     47.2      0.0    318.0       60     87.8     62.9      100     0.000     0.000     0.000     0.000      123        0       62       45        0        0        0     4.117       25     33.0    1.359     0.34       10       11     2009  NO_0°-10%.PRM
   Tot(2)        2        7     2010    525.9    576.8   2505.5   389.90      0.0    389.2    136.7     38.0      0.0    315.2       60     88.0     63.0      100     0.000     0.000     0.000     0.000      123        0       62       45        0        1        0     4.112       25     33.0    1.357     0.34       10       11     2010  NO_0°-10%.PRM
   Tot(3)        2        7     2011    379.9    623.4   2494.2   391.65      0.0    314.1     65.8     14.3      0.0    280.3       49     92.6     66.2       99     0.000     0.000     0.000     0.000      123        0       62       45        0        3        2     4.070       25     33.0    1.343     0.36       10       11     2011  NO_0°-10%.PRM
   Tot(4)        2        7     2012    614.7    594.3   2518.9   393.85      0.0    431.3    183.4     67.2      0.0    328.1       61     90.9     65.1      100     0.000     0.000     0.000     0.000      123        0       62       45        0        0        0     4.123       25     33.0    1.361     0.33       10       11     2012  NO_0°-10%.PRM
   Tot(5)        2        7     2013    443.3    579.6   2524.3   396.52      0.0    348.8     94.5     35.7      0.0    287.7       54     84.9     60.8      100     0.000     0.000     0.000     0.000      123        0       62       45        0        4        0     4.072       25     33.0    1.344     0.36       10       11     2013  NO_0°-10%.PRM
   Tot(6)        2        7     2014    336.6    617.7   2517.4   398.65      0.0    292.8     43.8      4.7      0.0    256.1       45     91.6     65.5      100     0.000     0.000     0.000     0.000      123        0       62       45        0        9        0     4.105       25     33.0    1.355     0.39       10       11     2014  NO_0°-10%.PRM
   Tot(7)        2        7     2015    541.7    611.1   2489.7   400.83      0.0    405.9    135.8     31.6      0.0    333.2       60     91.5     65.4      100     0.000     0.000     0.000     0.000      123        0       62       45        0        5        0     4.061       24     33.0    1.340     0.32       10       11     2015  NO_0°-10%.PRM
   Tot(8)        2        7     2016    438.4    615.7   2471.9   404.21      0.0    351.4     87.0     23.8      0.0    290.4       52     91.3     65.3      100     0.000     0.000     0.000     0.000      123        0       62       45        0        2        0     4.118       25     33.0    1.359     0.36       10       11     2016  NO_0°-10%.PRM
   Tot(9)        2        7     2017    427.6    626.1   2501.3   406.21      0.0    319.2    108.4     28.8      0.0    279.9       49     90.6     64.8       95     0.000     0.000     0.000     0.000      123        0       62       45        0        1        6     4.042       24     32.9    1.329     0.36       10       11     2017  NO_0°-10%.PRM
  Tot(10)        2        7     2018    346.3    600.6   2512.4   408.21      0.0    276.9     69.4     12.4      0.0    249.0       45     88.5     63.2       99     0.000     0.000     0.000     0.000      123        0       62       45        0       10        2     4.102       25     33.0    1.353     0.40       10       11     2018  NO_0°-10%.PRM
  Tot(11)        2        7     2019    362.1    604.4   2485.3   410.21      0.0    277.5     84.6     22.0      0.0    233.0       42     89.3     63.8      100     0.000     0.000     0.000     0.000      123        0       62       45        0        9        0     4.128       25     33.0    1.362     0.42       10       11     2019  NO_0°-10%.PRM
