AquaCrop 6.0 (March 2017) - Output created on (date) : 14/07/2022   at (time) : 11:09:20

    RunNr     Day1   Month1    Year1     Rain      ETo       GD     CO2      Irri   Infilt   Runoff    Drain   Upflow        E     E/Ex       Tr      TrW   Tr/Trx    SaltIn   SaltOut    SaltUp  SaltProf     Cycle   SaltStr  FertStr  WeedStr  TempStr   ExpStr   StoStr  BioMass  Brelative   HI     Yield     WPet     DayN   MonthN    YearN
                                           mm       mm    °C.day    ppm        mm       mm       mm       mm       mm       mm        %       mm       mm        %    ton/ha    ton/ha    ton/ha    ton/ha      days       %        %        %        %        %        %    ton/ha        %       %    ton/ha    kg/m3
   Tot(1)        2        7     2009    473.5    582.3   2551.7   387.43      0.0    368.4    105.1     33.6      0.0    311.8       59     87.6     62.7      100     0.000     0.000     0.000     0.000      123        0       62       45        0        0        0     4.110       25     33.0    1.356     0.34       10       11     2009  NO_0°-20%.PRM
   Tot(2)        2        7     2010    467.3    576.8   2505.5   389.90      0.0    364.5    102.8     23.0      0.0    306.9       58     87.7     62.7      100     0.000     0.000     0.000     0.000      123        0       62       45        0        1        0     4.102       25     33.0    1.354     0.34       10       11     2010  NO_0°-20%.PRM
   Tot(3)        2        7     2011    337.1    623.4   2494.2   391.65      0.0    291.9     45.2      7.9      0.0    268.0       47     91.2     65.2       98     0.000     0.000     0.000     0.000      123        0       62       45        0        5        3     4.032       24     33.0    1.330     0.37       10       11     2011  NO_0°-20%.PRM
   Tot(4)        2        7     2012    546.5    594.3   2518.9   393.85      0.0    406.4    140.1     52.3      0.0    321.1       59     90.8     65.0      100     0.000     0.000     0.000     0.000      123        0       62       45        0        1        0     4.120       25     33.0    1.360     0.33       10       11     2012  NO_0°-20%.PRM
   Tot(5)        2        7     2013    393.5    579.6   2524.3   396.52      0.0    323.6     69.9     24.1      0.0    277.1       52     84.3     60.3      100     0.000     0.000     0.000     0.000      123        0       62       45        0        5        0     4.050       24     33.0    1.336     0.37       10       11     2013  NO_0°-20%.PRM
   Tot(6)        2        7     2014    299.7    617.7   2517.4   398.65      0.0    274.0     25.7      0.0      0.0    247.3       44     91.2     65.2      100     0.000     0.000     0.000     0.000      123        0       62       45        0       10        0     4.089       25     33.0    1.350     0.40       10       11     2014  NO_0°-20%.PRM
   Tot(7)        2        7     2015    481.6    611.1   2489.7   400.83      0.0    382.8     98.8     18.0      0.0    324.4       58     91.2     65.3      100     0.000     0.000     0.000     0.000      123        0       62       45        0        6       -0     4.053       24     33.0    1.338     0.32       10       11     2015  NO_0°-20%.PRM
   Tot(8)        2        7     2016    389.5    615.7   2471.9   404.21      0.0    332.6     56.9     10.0      0.0    285.2       51     91.9     65.7      100     0.000     0.000     0.000     0.000      123        0       62       45        0        2        0     4.136       25     33.0    1.365     0.36       10       11     2016  NO_0°-20%.PRM
   Tot(9)        2        7     2017    379.4    626.1   2501.3   406.21      0.0    297.5     81.9     20.8      0.0    270.2       47     88.7     63.4       94     0.000     0.000     0.000     0.000      123        0       62       45        0        2        8     3.996       24     32.8    1.311     0.37       10       11     2017  NO_0°-20%.PRM
  Tot(10)        2        7     2018    307.6    600.6   2512.4   408.21      0.0    258.3     49.3      7.2      0.0    236.8       43     87.8     62.8       99     0.000     0.000     0.000     0.000      123        0       62       45        0       11        2     4.082       24     33.0    1.346     0.42       10       11     2018  NO_0°-20%.PRM
  Tot(11)        2        7     2019    322.0    604.4   2485.3   410.21      0.0    257.4     64.6     14.9      0.0    224.2       40     88.6     63.3      100     0.000     0.000     0.000     0.000      123        0       62       45        0       10        1     4.105       25     33.0    1.354     0.43       10       11     2019  NO_0°-20%.PRM
