AquaCrop 6.0 (March 2017) - Output created on (date) : 14/07/2022   at (time) : 11:09:20

   Run:   1
   Day Month  Year   DAP Stage   WC(1.20)   Rain     Irri   Surf   Infilt   RO    Drain       CR    Zgwt       Ex       E     E/Ex     Trx       Tr  Tr/Trx    ETx      ET  ET/ETx      GD       Z     StExp  StSto  StSen StSalt StWeed   CC      CCw     StTr  Kc(Tr)     Trx       Tr      TrW  Tr/Trx   WP    Biomass     HI  YieldPart  Brelative    WPet  WC(1.20) Wr(0.80)     Z       Wr    Wr(SAT)    Wr(FC)   Wr(exp)   Wr(sto)   Wr(sen)   Wr(PWP)    SaltIn    SaltOut   SaltUp   Salt(1.20)  SaltZ     Z       ECe    ECsw   StSalt  Zgwt    ECgw       WC01       WC 2       WC 3       WC 4       WC 5       WC 6       WC 7       WC 8       WC 9       WC10       WC11       WC12      ECe01      ECe 2      ECe 3      ECe 4      ECe 5      ECe 6      ECe 7      ECe 8      ECe 9      ECe10      ECe11      ECe12     Rain       ETo      Tmin      Tavg      Tmax      CO2
                                      mm      mm       mm     mm     mm     mm       mm       mm      m        mm       mm     %        mm       mm    %        mm      mm       %    °C-day     m       %      %      %      %      %      %       %       %       -        mm       mm       mm    %     g/m2    ton/ha      %    ton/ha       %       kg/m3      mm       mm       m       mm        mm        mm        mm        mm        mm         mm    ton/ha    ton/ha    ton/ha    ton/ha    ton/ha     m      dS/m    dS/m      %     m      dS/m       0.05       0.15       0.25       0.35       0.45       0.55       0.65       0.75       0.85       0.95       1.05       1.15       0.05       0.15       0.25       0.35       0.45       0.55       0.65       0.75       0.85       0.95       1.05       1.15       mm        mm       °C        °C        °C       ppm
     2     7  2009     1     1     383.9     7.4      0.0    0.0    5.5    1.9      0.0      0.0   -9.90      4.4      4.4    100      0.0      0.0   100      4.4     4.4     100     18.0    0.30     -9     -9     -9      0     -9     0.0     0.0      0    -9.00      0.0      0.0      0.0   100     0.0     0.000    -9.9    0.000      -9        0.00     383.9    256.3    0.30    96.8     133.2      95.7      90.7      70.2      71.1      60.0    0.000     0.000     0.000     0.000     0.000    0.30     0.00    0.00      0   -9.90   -9.00       33.0       31.9       31.9       31.9       31.9       31.9       31.9       31.9       31.9       31.9       31.9       31.9        0.0        0.0        0.0        0.0        0.0        0.0        0.0        0.0        0.0        0.0        0.0        0.0      7.4       4.0      22.0      28.4      34.8    387.43
     3     7  2009     2     1     380.1     0.0      0.0    0.0    0.0    0.0      0.0      0.0   -9.90      4.3      3.8     88      0.0      0.0   100      4.3     3.8      88     19.1    0.30     -9     -9     -9      0     -9     0.0     0.0      0    -9.00      0.0      0.0      0.0   100     0.0     0.000    -9.9    0.000      -9        0.00     380.1    252.5    0.30    92.9     133.2      95.7      90.7      70.2      71.1      60.0    0.000     0.000     0.000     0.000     0.000    0.30     0.00    0.00      0   -9.90   -9.00       28.8       32.2       32.0       31.9       31.9       31.9       31.9       31.9       31.9       31.9       31.9       31.9        0.0        0.0        0.0        0.0        0.0        0.0        0.0        0.0        0.0        0.0        0.0        0.0      0.0       3.9      24.1      29.7      35.3    387.43
     4     7  2009     3     1     377.5     0.0      0.0    0.0    0.0    0.0      0.0      0.0   -9.90      4.3      2.6     60      0.0      0.0   100      4.3     2.6      60     20.2    0.30     -9     -9     -9      0     -9     0.0     0.0      0    -9.00      0.0      0.0      0.0   100     0.0     0.000    -9.9    0.000      -9        0.00     377.5    249.9    0.30    90.2     133.2      95.7      90.7      70.2      71.1      60.0    0.000     0.000     0.000     0.000     0.000    0.30     0.00    0.00      0   -9.90   -9.00       26.2       32.1       32.0       32.0       31.9       31.9       31.9       31.9       31.9       31.9       31.9       31.9        0.0        0.0        0.0        0.0        0.0        0.0        0.0        0.0        0.0        0.0        0.0        0.0      0.0       3.9      26.4      31.9      37.5    387.43
     5     7  2009     4     1     384.8    11.2      0.0    0.0    9.5    1.7      0.1      0.0   -9.90      2.2      2.2    100      0.0      0.0   100      2.2     2.2     100     19.1    0.30     -9     -9     -9      0     -9     0.0     0.0      0    -9.00      0.0      0.0      0.0   100     0.0     0.000    -9.9    0.000      -9        0.00     384.8    257.1    0.30    97.5     133.2      95.7      90.7      68.6      71.1      60.0    0.000     0.000     0.000     0.000     0.000    0.30     0.00    0.00      0   -9.90   -9.00       33.5       32.0       31.9       31.9       31.9       31.9       31.9       31.9       31.9       31.9       31.9       31.9        0.0        0.0        0.0        0.0        0.0        0.0        0.0        0.0        0.0        0.0        0.0        0.0     11.2       2.0      25.5      27.1      28.7    387.43
     6     7  2009     5     1     380.6     0.0      0.0    0.0    0.0    0.0      0.1      0.0   -9.90      4.1      4.1    100      0.0      0.0   100      4.1     4.1     100     20.0    0.30     -9     -9     -9      0     -9     0.0     0.0      0    -9.00      0.0      0.0      0.0   100     0.0     0.000    -9.9    0.000      -9        0.00     380.6    252.9    0.30    93.2     133.2      95.7      90.7      70.0      71.1      60.0    0.000     0.000     0.000     0.000     0.000    0.30     0.00    0.00      0   -9.90   -9.00       28.8       32.4       32.1       32.0       31.9       31.9       31.9       31.9       31.9       31.9       31.9       31.9        0.0        0.0        0.0        0.0        0.0        0.0        0.0        0.0        0.0        0.0        0.0        0.0      0.0       3.7      26.0      31.2      36.4    387.43
     7     7  2009     6     1     376.5     0.0      0.0    0.0    0.0    0.0      0.1      0.0   -9.90      4.0      3.9     99      0.0      0.0   100      4.0     3.9      99     19.6    0.30     -9     -9     -9      0     -9     0.0     0.0      0    -9.00      0.0      0.0      0.0   100     0.0     0.000    -9.9    0.000      -9        0.00     376.5    248.8    0.30    89.0     133.2      95.7      90.7      69.9      71.1      60.0    0.000     0.000     0.000     0.000     0.000    0.30     0.00    0.00      0   -9.90   -9.00       24.8       32.2       32.0       32.0       32.0       32.0       31.9       31.9       31.9       31.9       31.9       31.9        0.0        0.0        0.0        0.0        0.0        0.0        0.0        0.0        0.0        0.0        0.0        0.0      0.0       3.6      25.2      30.0      34.9    387.43
     8     7  2009     7     2     373.7     0.0      0.0    0.0    0.0    0.0      0.2      0.0   -9.90      3.6      2.6     73      0.0      0.0   100      3.6     2.7      73     20.1    0.30     -9      0      0      0     45     0.2     0.1      0     0.00      0.0      0.0      0.0   100    34.2     0.001    -9.9    0.000      74        0.00     373.7    246.0    0.30    86.2     133.2      95.7      88.4      69.7      69.7      60.0    0.000     0.000     0.000     0.000     0.000    0.30     0.00    0.00      0   -9.90   -9.00       22.2       32.0       32.0       32.0       32.0       32.0       31.9       31.9       31.9       31.9       31.9       31.9        0.0        0.0        0.0        0.0        0.0        0.0        0.0        0.0        0.0        0.0        0.0        0.0      0.0       3.3      26.2      30.2      34.2    387.43
     9     7  2009     8     2     371.3     0.0      0.0    0.0    0.0    0.0      0.2      0.0   -9.90      4.3      2.1     50      0.0      0.0   100      4.3     2.2      50     20.5    0.30     -9      0      0      0     45     0.2     0.1      0     0.00      0.0      0.0      0.0   100    34.2     0.002    -9.9    0.000      69        0.00     371.3    243.6    0.30    83.9     133.2      95.7      89.2      70.2      70.2      60.0    0.000     0.000     0.000     0.000     0.000    0.30     0.00    0.00      0   -9.90   -9.00       20.0       32.0       31.9       31.9       31.9       31.9       31.9       31.9       31.9       31.9       31.9       31.9        0.0        0.0        0.0        0.0        0.0        0.0        0.0        0.0        0.0        0.0        0.0        0.0      0.0       3.9      27.0      32.1      37.3    387.43
    10     7  2009     9     2     369.7     0.0      0.0    0.0    0.0    0.0      0.2      0.0   -9.90      3.8      1.4     38      0.0      0.0   100      3.8     1.5      38     21.0    0.30     -9      0      0      0     45     0.3     0.1      0     0.00      0.0      0.0      0.0   100    34.2     0.003    -9.9    0.000      66        0.00     369.7    242.0    0.30    82.4     133.2      95.7      88.7      69.8      69.8      60.0    0.000     0.000     0.000     0.000     0.000    0.30     0.00    0.00      0   -9.90   -9.00       18.6       31.9       31.9       31.9       31.9       31.9       31.9       31.9       31.9       31.9       31.9       31.9        0.0        0.0        0.0        0.0        0.0        0.0        0.0        0.0        0.0        0.0        0.0        0.0      0.0       3.5      28.0      32.3      36.5    387.43
    11     7  2009    10     2     369.2     3.8      0.0    0.0    3.8    0.0      0.1      0.0   -9.90      4.6      4.2     92      0.0      0.0   100      4.6     4.2      92     19.0    0.30      4      0      0      0     45     0.3     0.2      0     0.01      0.0      0.0      0.0   100    34.2     0.005    -9.9    0.000      64        0.00     369.2    241.5    0.30    82.0     133.2      95.7      89.6      70.4      70.4      60.0    0.000     0.000     0.000     0.000     0.000    0.30     0.00    0.00      0   -9.90   -9.00       18.1       31.9       31.9       31.9       31.9       31.9       31.9       31.9       31.9       31.9       31.9       31.9        0.0        0.0        0.0        0.0        0.0        0.0        0.0        0.0        0.0        0.0        0.0        0.0      3.8       4.2      24.0      30.3      36.6    387.43
    12     7  2009    11     2     368.9     3.8      0.0    0.0    3.8    0.0      0.1      0.0   -9.90      4.3      4.0     95      0.0      0.0   100      4.3     4.1      95     20.5    0.30      4      0      0      0     45     0.3     0.2      0     0.01      0.0      0.0      0.0   100    34.2     0.006    -9.9    0.000      61        0.00     368.9    241.2    0.30    81.7     133.2      95.7      89.2      70.2      70.2      60.0    0.000     0.000     0.000     0.000     0.000    0.30     0.00    0.00      0   -9.90   -9.00       17.9       31.9       31.9       31.9       31.9       31.9       31.9       31.9       31.9       31.9       31.9       31.9        0.0        0.0        0.0        0.0        0.0        0.0        0.0        0.0        0.0        0.0        0.0        0.0      3.8       3.9      27.0      32.3      37.6    387.43
    13     7  2009    12     2     376.0    11.4      0.0    0.0   10.8    0.6      0.0      0.0   -9.90      3.6      3.6    100      0.0      0.0   100      3.6     3.6     100     19.5    0.30      0      0      0      0     45     0.4     0.2      0     0.01      0.0      0.0      0.0   100    34.2     0.008    -9.9    0.000      59        0.00     376.0    248.4    0.30    88.8     133.2      95.7      88.4      69.7      69.7      60.0    0.000     0.000     0.000     0.000     0.000    0.30     0.00    0.00      0   -9.90   -9.00       25.1       31.9       31.9       31.9       31.9       31.9       31.9       31.9       31.9       31.9       31.9       31.9        0.0        0.0        0.0        0.0        0.0        0.0        0.0        0.0        0.0        0.0        0.0        0.0     11.4       3.3      25.0      29.4      33.8    387.43
    14     7  2009    13     2     375.6     3.8      0.0    0.0    3.8    0.0      0.0      0.0   -9.90      4.2      4.1    100      0.0      0.0   100      4.2     4.2     100     19.8    0.31      0      0      0      0     45     0.4     0.2      0     0.01      0.0      0.0      0.0   100    34.2     0.010    -9.9    0.000      57        0.00     375.6    247.9    0.31    90.6     136.2      97.8      91.1      71.6      71.6      61.3    0.000     0.000     0.000     0.000     0.000    0.31     0.00    0.00      0   -9.90   -9.00       24.7       31.9       31.9       31.9       31.9       31.9       31.9       31.9       31.9       31.9       31.9       31.9        0.0        0.0        0.0        0.0        0.0        0.0        0.0        0.0        0.0        0.0        0.0        0.0      3.8       3.8      25.5      30.6      35.7    387.43
    15     7  2009    14     2     378.6     7.6      0.0    0.0    7.2    0.4      0.0      0.0   -9.90      4.0      4.0    100      0.0      0.0   100      4.1     4.1     100     18.3    0.31      0      0      0      0     45     0.4     0.2      0     0.01      0.0      0.0      0.0   100    34.2     0.012    -9.9    0.000      54        0.00     378.6    251.0    0.31    96.0     139.4     100.2      93.1      73.3      73.3      62.8    0.000     0.000     0.000     0.000     0.000    0.31     0.00    0.00      0   -9.90   -9.00       27.8       31.9       31.9       31.9       31.9       31.9       31.9       31.9       31.9       31.9       31.9       31.9        0.0        0.0        0.0        0.0        0.0        0.0        0.0        0.0        0.0        0.0        0.0        0.0      7.6       3.7      22.6      27.9      33.1    387.43
    16     7  2009    15     2     376.5     2.1      0.0    0.0    2.1    0.0      0.0      0.0   -9.90      4.5      4.2     93      0.0      0.0   100      4.5     4.2      93     18.6    0.32      0      0      0      0     45     0.5     0.3      0     0.01      0.0      0.0      0.0   100    34.2     0.014    -9.9    0.000      52        0.00     376.5    248.9    0.32    96.2     142.6     102.5      95.8      75.3      75.3      64.2    0.000     0.000     0.000     0.000     0.000    0.32     0.00    0.00      0   -9.90   -9.00       25.6       31.9       31.9       31.9       31.9       31.9       31.9       31.9       31.9       31.9       31.9       31.9        0.0        0.0        0.0        0.0        0.0        0.0        0.0        0.0        0.0        0.0        0.0        0.0      2.1       4.1      23.3      29.4      35.5    387.43
    17     7  2009    16     2     373.8     0.0      0.0    0.0    0.0    0.0      0.0      0.0   -9.90      4.2      2.6     62      0.0      0.0   100      4.3     2.7      62     19.5    0.33      0      0      0      0     45     0.6     0.3      0     0.01      0.0      0.0      0.0   100    34.2     0.016    -9.9    0.000      50        0.00     373.8    246.2    0.33    95.8     145.8     104.7      97.6      76.8      76.8      65.7    0.000     0.000     0.000     0.000     0.000    0.33     0.00    0.00      0   -9.90   -9.00       23.0       31.9       31.9       31.9       31.9       31.9       31.9       31.9       31.9       31.9       31.9       31.9        0.0        0.0        0.0        0.0        0.0        0.0        0.0        0.0        0.0        0.0        0.0        0.0      0.0       3.9      25.0      30.4      35.7    387.43
    18     7  2009    17     2     372.0     0.0      0.0    0.0    0.0    0.0      0.0      0.0   -9.90      4.0      1.8     45      0.0      0.0   100      4.1     1.8      45     19.3    0.34      1      0      0      0     45     0.6     0.3      0     0.01      0.0      0.0      0.0   100    34.2     0.019    -9.9    0.000      48        0.00     372.0    244.4    0.34    96.1     148.8     106.9      99.4      78.2      78.2      67.0    0.000     0.000     0.000     0.000     0.000    0.34     0.00    0.00      0   -9.90   -9.00       21.1       31.9       31.9       31.9       31.9       31.9       31.9       31.9       31.9       31.9       31.9       31.9        0.0        0.0        0.0        0.0        0.0        0.0        0.0        0.0        0.0        0.0        0.0        0.0      0.0       3.7      24.6      29.6      34.6    387.43
    19     7  2009    18     2     370.7     0.0      0.0    0.0    0.0    0.0      0.0      0.0   -9.90      3.4      1.2     36      0.0      0.0   100      3.4     1.2      36     20.6    0.34      2      0      0      0     45     0.7     0.4      0     0.01      0.0      0.0      0.0   100    34.2     0.022    -9.9    0.000      46        0.00     370.7    243.1    0.34    97.1     151.9     109.1     100.5      79.2      79.2      68.4    0.000     0.000     0.000     0.000     0.000    0.34     0.00    0.00      0   -9.90   -9.00       19.9       31.8       31.9       31.9       31.9       31.9       31.9       31.9       31.9       31.9       31.9       31.9        0.0        0.0        0.0        0.0        0.0        0.0        0.0        0.0        0.0        0.0        0.0        0.0      0.0       3.1      27.1      30.4      33.7    387.43
    20     7  2009    19     2     369.9     2.1      0.0    0.0    2.1    0.0      0.0      0.0   -9.90      3.4      2.9     87      0.0      0.0   100      3.4     3.0      87     20.6    0.35      1      0      0      0     45     0.8     0.4      0     0.01      0.0      0.0      0.0   100    34.2     0.026    -9.9    0.000      44        0.00     369.9    242.3    0.35    98.3     154.9     111.3     102.5      80.8      80.8      69.8    0.000     0.000     0.000     0.000     0.000    0.35     0.00    0.00      0   -9.90   -9.00       19.1       31.8       31.9       31.9       31.9       31.9       31.9       31.9       31.9       31.9       31.9       31.9        0.0        0.0        0.0        0.0        0.0        0.0        0.0        0.0        0.0        0.0        0.0        0.0      2.1       3.1      27.3      30.9      34.4    387.43
    21     7  2009    20     2     372.7     7.7      0.0    0.0    7.5    0.2      0.0      0.0   -9.90      4.7      4.7    100      0.1      0.1   100      4.7     4.7     100     16.9    0.36      0      0      0      0     45     0.8     0.5      0     0.01      0.1      0.1      0.0   100    34.2     0.029    -9.9    0.000      42        0.00     372.7    245.1    0.36   103.3     157.8     113.4     106.3      83.5      83.5      71.1    0.000     0.000     0.000     0.000     0.000    0.36     0.00    0.00      0   -9.90   -9.00       21.9       31.8       31.9       31.9       31.9       31.9       31.9       31.9       31.9       31.9       31.9       31.9        0.0        0.0        0.0        0.0        0.0        0.0        0.0        0.0        0.0        0.0        0.0        0.0      7.7       4.3      19.9      27.2      34.5    387.43
    22     7  2009    21     2     369.1     0.0      0.0    0.0    0.0    0.0      0.0      0.0   -9.90      4.0      3.5     88      0.1      0.1   100      4.1     3.6      88     19.5    0.36      2      0      0      0     45     0.9     0.5      0     0.02      0.1      0.1      0.0   100    34.2     0.033    -9.9    0.000      40        0.00     369.1    241.5    0.36   101.8     160.7     115.5     107.3      84.4      84.4      72.4    0.000     0.000     0.000     0.000     0.000    0.36     0.00    0.00      0   -9.90   -9.00       18.4       31.7       31.9       31.9       31.9       31.9       31.9       31.9       31.9       31.9       31.9       31.9        0.0        0.0        0.0        0.0        0.0        0.0        0.0        0.0        0.0        0.0        0.0        0.0      0.0       3.7      25.0      29.8      34.5    387.43
    23     7  2009    22     2     367.2     0.0      0.0    0.0    0.0    0.0      0.0      0.0   -9.90      4.1      1.8     45      0.1      0.1   100      4.2     1.9      45     20.1    0.37      5      0      0      0     45     1.0     0.6      0     0.02      0.1      0.1      0.1   100    34.2     0.038    -9.9    0.000      38        0.00     367.2    239.6    0.37   101.9     163.6     117.5     109.4      86.1      86.1      73.7    0.000     0.000     0.000     0.000     0.000    0.37     0.00    0.00      0   -9.90   -9.00       16.6       31.7       31.9       31.9       31.9       31.9       31.9       31.9       31.9       31.9       31.9       31.9        0.0        0.0        0.0        0.0        0.0        0.0        0.0        0.0        0.0        0.0        0.0        0.0      0.0       3.8      26.2      31.1      36.1    387.43
    24     7  2009    23     2     367.1     3.8      0.0    0.0    3.8    0.0      0.0      0.0   -9.90      3.9      3.8     99      0.1      0.1   100      4.0     3.9      99     20.8    0.37      3      0      0      0     45     1.1     0.6      0     0.02      0.1      0.1      0.1   100    34.2     0.043    -9.9    0.000      36        0.00     367.1    239.5    0.37   103.9     166.4     119.6     111.0      87.3      87.3      75.0    0.000     0.000     0.000     0.000     0.000    0.37     0.00    0.00      0   -9.90   -9.00       16.5       31.6       31.9       31.9       31.9       31.9       31.9       31.9       31.9       31.9       31.9       31.9        0.0        0.0        0.0        0.0        0.0        0.0        0.0        0.0        0.0        0.0        0.0        0.0      3.8       3.6      27.5      31.8      36.0    387.43
    25     7  2009    24     2     367.3     3.8      0.0    0.0    3.8    0.0      0.0      0.0   -9.90      3.6      3.6    100      0.1      0.1   100      3.6     3.6     100     20.7    0.38      2      0      0      0     45     1.3     0.7      0     0.02      0.1      0.1      0.1   100    34.2     0.049    -9.9    0.000      35        0.00     367.3    239.7    0.38   106.1     169.2     121.6     112.3      88.5      88.5      76.2    0.000     0.000     0.000     0.000     0.000    0.38     0.00    0.00      0   -9.90   -9.00       16.8       31.5       31.9       31.9       31.9       31.9       31.9       31.9       31.9       31.9       31.9       31.9        0.0        0.0        0.0        0.0        0.0        0.0        0.0        0.0        0.0        0.0        0.0        0.0      3.8       3.3      27.4      31.0      34.6    387.43
    26     7  2009    25     2     365.8     0.0      0.0    0.0    0.0    0.0      0.0      0.0   -9.90      3.8      1.4     37      0.1      0.1   100      3.8     1.5      39     20.5    0.39      6      0      0      0     45     1.4     0.8      0     0.02      0.1      0.1      0.1   100    34.2     0.055    -9.9    0.000      33        0.00     365.8    238.2    0.39   106.6     172.0     123.6     114.5      90.1      90.1      77.5    0.000     0.000     0.000     0.000     0.000    0.39     0.00    0.00      0   -9.90   -9.00       15.4       31.4       31.9       31.9       31.9       31.9       31.9       31.9       31.9       31.9       31.9       31.9        0.0        0.0        0.0        0.0        0.0        0.0        0.0        0.0        0.0        0.0        0.0        0.0      0.0       3.5      27.0      31.1      35.1    387.43
    27     7  2009    26     2     375.8    15.5      0.0    0.0   14.1    1.4      0.0      0.0   -9.90      4.0      4.0    100      0.1      0.1   100      4.1     4.1     100     19.3    0.39      0      0      0      0     45     1.5     0.8      0     0.03      0.1      0.1      0.1   100    34.2     0.062    -9.9    0.000      31        0.00     375.8    248.2    0.39   118.5     174.7     125.5     116.7      91.8      91.8      78.7    0.000     0.000     0.000     0.000     0.000    0.39     0.00    0.00      0   -9.90   -9.00       25.4       31.4       31.9       31.9       31.9       31.9       31.9       31.9       31.9       31.9       31.9       31.9        0.0        0.0        0.0        0.0        0.0        0.0        0.0        0.0        0.0        0.0        0.0        0.0     15.5       3.7      24.5      29.4      34.2    387.43
    28     7  2009    27     2     372.1     0.0      0.0    0.0    0.0    0.0      0.0      0.0   -9.90      3.6      3.6    100      0.1      0.1   100      3.7     3.7     100     20.0    0.40      0      0      0      0     45     1.7     0.9      0     0.03      0.1      0.1      0.1   100    34.2     0.069    -9.9    0.000      30        0.00     372.1    244.5    0.40   116.7     177.4     127.5     117.9      92.9      92.9      79.9    0.000     0.000     0.000     0.000     0.000    0.40     0.00    0.00      0   -9.90   -9.00       21.6       31.4       31.9       31.9       31.9       31.9       31.9       31.9       31.9       31.9       31.9       31.9        0.0        0.0        0.0        0.0        0.0        0.0        0.0        0.0        0.0        0.0        0.0        0.0      0.0       3.4      26.0      30.1      34.2    387.43
    29     7  2009    28     2     373.0     5.2      0.0    0.0    5.2    0.0      0.0      0.0   -9.90      4.0      4.0    100      0.1      0.1   100      4.2     4.2     100     18.2    0.41      0      0      0      0     45     1.9     1.0      0     0.03      0.1      0.1      0.1   100    34.2     0.078    -9.9    0.000      28        0.00     373.0    245.4    0.41   119.6     180.1     129.4     120.5      94.7      94.7      81.1    0.000     0.000     0.000     0.000     0.000    0.41     0.00    0.00      0   -9.90   -9.00       22.6       31.4       31.9       31.9       31.9       31.9       31.9       31.9       31.9       31.9       31.9       31.9        0.0        0.0        0.0        0.0        0.0        0.0        0.0        0.0        0.0        0.0        0.0        0.0      5.2       3.8      22.4      27.8      33.1    387.43
    30     7  2009    29     2     378.0    10.3      0.0    0.0    9.6    0.7      0.0      0.0   -9.90      4.5      4.5    100      0.2      0.2   100      4.6     4.6     100     18.3    0.41      0      0      0      0     45     2.1     1.2      0     0.04      0.2      0.2      0.1   100    34.2     0.087    -9.9    0.000      27        0.00     378.0    250.4    0.41   126.5     182.8     131.3     123.0      96.6      96.6      82.3    0.000     0.000     0.000     0.000     0.000    0.41     0.00    0.00      0   -9.90   -9.00       27.6       31.4       31.9       31.9       31.9       31.9       31.9       31.9       31.9       31.9       31.9       31.9        0.0        0.0        0.0        0.0        0.0        0.0        0.0        0.0        0.0        0.0        0.0        0.0     10.3       4.2      22.5      28.5      34.5    387.43
    31     7  2009    30     2     378.9     5.2      0.0    0.0    4.9    0.3      0.0      0.0   -9.90      3.9      3.9    100      0.2      0.2   100      4.1     4.1     100     19.5    0.42      0      0      0      0     45     2.3     1.3      0     0.04      0.2      0.2      0.1   100    34.2     0.098    -9.9    0.000      26        0.00     378.9    251.3    0.42   129.3     185.4     133.2     123.8      97.4      97.4      83.5    0.000     0.000     0.000     0.000     0.000    0.42     0.00    0.00      0   -9.90   -9.00       28.5       31.4       31.9       31.9       31.9       31.9       31.9       31.9       31.9       31.9       31.9       31.9        0.0        0.0        0.0        0.0        0.0        0.0        0.0        0.0        0.0        0.0        0.0        0.0      5.2       3.7      25.0      29.6      34.2    387.43
     1     8  2009    31     2     375.3     0.0      0.0    0.0    0.0    0.0      0.0      0.0   -9.90      3.8      3.4     90      0.2      0.2   100      4.0     3.6      90     20.1    0.42      0      0      0      0     45     2.6     1.4      0     0.05      0.2      0.2      0.1   100    34.2     0.109    -9.9    0.000      24        0.00     375.3    247.7    0.42   127.6     188.0     135.1     125.4      98.7      98.7      84.7    0.000     0.000     0.000     0.000     0.000    0.42     0.00    0.00      0   -9.90   -9.00       24.9       31.4       31.9       31.9       31.9       31.9       31.9       31.9       31.9       31.9       31.9       31.9        0.0        0.0        0.0        0.0        0.0        0.0        0.0        0.0        0.0        0.0        0.0        0.0      0.0       3.6      26.3      30.5      34.8    387.43
     2     8  2009    32     2     379.1     9.0      0.0    0.0    8.2    0.8      0.0      0.0   -9.90      4.2      4.2    100      0.2      0.2   100      4.4     4.4     100     18.6    0.43      0      0      0      0     45     2.9     1.6      0     0.05      0.2      0.2      0.1   100    34.2     0.122    -9.9    0.000      23        0.00     379.1    251.5    0.43   133.3     190.6     136.9     127.9     100.5     100.5      85.9    0.000     0.000     0.000     0.000     0.000    0.43     0.00    0.00      0   -9.90   -9.00       28.7       31.4       31.9       31.9       31.9       31.9       31.9       31.9       31.9       31.9       31.9       31.9        0.0        0.0        0.0        0.0        0.0        0.0        0.0        0.0        0.0        0.0        0.0        0.0      9.0       4.0      23.3      28.7      34.1    387.43
     3     8  2009    33     2     384.7    13.4      0.0    0.0   10.2    3.2      0.0      0.0   -9.90      4.4      4.4    100      0.2      0.2   100      4.6     4.6     100     17.4    0.44      0      0      0      0     45     3.2     1.8      0     0.06      0.2      0.2      0.2   100    34.2     0.136    -9.9    0.000      22        0.00     384.7    257.1    0.44   140.7     193.2     138.8     130.0     102.1     102.1      87.0    0.000     0.000     0.000     0.000     0.000    0.44     0.00    0.00      0   -9.90   -9.00       34.3       31.4       31.9       31.9       31.9       31.9       31.9       31.9       31.9       31.9       31.9       31.9        0.0        0.0        0.0        0.0        0.0        0.0        0.0        0.0        0.0        0.0        0.0        0.0     13.4       4.2      20.8      27.2      33.6    387.43
     4     8  2009    34     2     380.4     0.0      0.0    0.0    0.0    0.0      0.0      0.0   -9.90      4.0      4.0    100      0.2      0.2   100      4.3     4.3     100     19.3    0.44      0      0      0      0     45     3.6     2.0      0     0.06      0.2      0.2      0.2   100    34.2     0.152    -9.9    0.000      21        0.00     380.4    252.8    0.44   138.2     195.7     140.6     131.1     103.1     103.1      88.2    0.000     0.000     0.000     0.000     0.000    0.44     0.00    0.00      0   -9.90   -9.00       29.0       32.2       32.0       31.9       31.9       31.9       31.9       31.9       31.9       31.9       31.9       31.9        0.0        0.0        0.0        0.0        0.0        0.0        0.0        0.0        0.0        0.0        0.0        0.0      0.0       3.9      24.5      29.4      34.3    387.43
     5     8  2009    35     2     383.3     9.0      0.0    0.0    7.4    1.6      0.0      0.0   -9.90      4.2      4.2    100      0.3      0.3   100      4.5     4.5     100     19.1    0.45      0      0      0      0     45     4.0     2.2      0     0.07      0.3      0.3      0.2   100    34.2     0.169    -9.9    0.000      20        0.00     383.3    255.6    0.45   142.8     198.3     142.4     133.2     104.7     104.7      89.3    0.000     0.000     0.000     0.000     0.000    0.45     0.00    0.00      0   -9.90   -9.00       31.9       32.1       32.0       32.0       31.9       31.9       31.9       31.9       31.9       31.9       31.9       31.9        0.0        0.0        0.0        0.0        0.0        0.0        0.0        0.0        0.0        0.0        0.0        0.0      9.0       4.1      24.3      29.7      35.1    387.43
     6     8  2009    36     2     386.2    10.2      0.0    0.0    6.8    3.4      0.1      0.0   -9.90      3.5      3.5    100      0.3      0.3   100      3.7     3.7     100     19.8    0.45      0      0      0      0     45     4.5     2.5      0     0.08      0.3      0.3      0.2   100    34.2     0.189    -9.9    0.000      19        0.00     386.2    258.5    0.45   147.5     200.8     144.3     133.5     105.1     105.1      90.4    0.000     0.000     0.000     0.000     0.000    0.45     0.00    0.00      0   -9.90   -9.00       34.9       32.0       32.0       32.0       31.9       31.9       31.9       31.9       31.9       31.9       31.9       31.9        0.0        0.0        0.0        0.0        0.0        0.0        0.0        0.0        0.0        0.0        0.0        0.0     10.2       3.4      25.5      29.2      32.9    387.43
     7     8  2009    37     2     387.2     6.8      0.0    0.0    5.2    1.6      0.1      0.0   -9.90      3.7      3.7    100      0.3      0.3   100      4.1     4.1     100     18.9    0.46      0      0      0      0     45     5.0     2.7      0     0.09      0.3      0.3      0.2   100    34.2     0.211    -9.9    0.000      19        0.00     387.2    259.5    0.46   150.2     203.3     146.0     135.8     106.8     106.8      91.6    0.000     0.000     0.000     0.000     0.000    0.46     0.00    0.00      0   -9.90   -9.00       34.7       32.7       32.3       32.0       32.0       32.0       31.9       31.9       31.9       31.9       31.9       31.9        0.0        0.0        0.0        0.0        0.0        0.0        0.0        0.0        0.0        0.0        0.0        0.0      6.8       3.7      23.9      28.4      33.0    387.43
     8     8  2009    38     2     388.1     6.8      0.0    0.0    5.2    1.6      0.2      0.0   -9.90      3.7      3.7    100      0.4      0.4   100      4.1     4.1     100     19.0    0.46      0      0      0      0     45     5.6     3.1      0     0.10      0.4      0.4      0.3   100    34.2     0.235    -9.9    0.000      19        0.00     388.1    260.3    0.46   152.7     205.8     147.8     137.4     108.1     108.1      92.7    0.000     0.000     0.000     0.000     0.000    0.46     0.00    0.00      0   -9.90   -9.00       34.6       33.0       32.5       32.2       32.1       32.0       32.0       32.0       31.9       31.9       31.9       31.9        0.0        0.0        0.0        0.0        0.0        0.0        0.0        0.0        0.0        0.0        0.0        0.0      6.8       3.7      24.0      28.5      33.0    387.43
     9     8  2009    39     2     386.8     3.4      0.0    0.0    3.0    0.4      0.4      0.0   -9.90      3.5      3.5    100      0.4      0.4   100      3.9     3.9     100     19.0    0.47      0      0      0      0     45     6.3     3.4      0     0.11      0.4      0.4      0.3   100    34.2     0.262    -9.9    0.000      18        0.00     386.8    258.9    0.47   152.8     208.2     149.6     138.8     109.3     109.3      93.8    0.000     0.000     0.000     0.000     0.000    0.47     0.00    0.00      0   -9.90   -9.00       32.5       33.2       32.6       32.3       32.2       32.1       32.0       32.0       32.0       32.0       32.0       32.0        0.0        0.0        0.0        0.0        0.0        0.0        0.0        0.0        0.0        0.0        0.0        0.0      3.4       3.6      24.0      28.3      32.5    387.43
    10     8  2009    40     2     383.2     0.0      0.0    0.0    0.0    0.0      0.6      0.0   -9.90      3.4      2.5     74      0.4      0.4   100      3.8     2.9      77     20.0    0.47      0      0      0      0     45     7.0     3.9      0     0.12      0.4      0.4      0.3   100    34.1     0.292    -9.9    0.000      18        0.00     383.2    255.2    0.47   150.7     210.7     151.4     140.3     110.4     110.4      94.9    0.000     0.000     0.000     0.000     0.000    0.47     0.00    0.00      0   -9.90   -9.00       29.3       32.6       32.5       32.3       32.2       32.1       32.1       32.1       32.0       32.0       32.0       32.0        0.0        0.0        0.0        0.0        0.0        0.0        0.0        0.0        0.0        0.0        0.0        0.0      0.0       3.5      26.0      29.9      33.8    387.43
    11     8  2009    41     2     385.7     9.4      0.0    0.0    7.6    1.8      0.8      0.0   -9.90      3.8      3.8    100      0.5      0.5   100      4.4     4.4     100     18.5    0.48      0      0      0      0     45     7.8     4.3      0     0.13      0.5      0.5      0.4   100    34.1     0.325    -9.9    0.000      19        0.00     385.7    257.7    0.48   155.0     213.1     153.1     143.0     112.4     112.4      96.0    0.000     0.000     0.000     0.000     0.000    0.48     0.00    0.00      0   -9.90   -9.00       32.6       32.3       32.2       32.1       32.1       32.1       32.1       32.1       32.0       32.0       32.0       32.0        0.0        0.0        0.0        0.0        0.0        0.0        0.0        0.0        0.0        0.0        0.0        0.0      9.4       4.0      23.0      28.3      33.5    387.43
    12     8  2009    42     2     388.9    14.2      0.0    0.0    8.1    6.1      0.8      0.0   -9.90      3.6      3.6    100      0.6      0.6   100      4.1     4.1     100     19.1    0.49      0      0      0      0     45     8.8     4.8      0     0.15      0.6      0.6      0.4   100    34.1     0.363    -9.9    0.000      19        0.00     388.9    260.9    0.49   160.2     215.5     154.8     144.1     113.4     113.4      97.1    0.000     0.000     0.000     0.000     0.000    0.49     0.00    0.00      0   -9.90   -9.00       36.3       32.3       32.1       32.1       32.1       32.0       32.0       32.0       32.0       32.0       32.0       32.0        0.0        0.0        0.0        0.0        0.0        0.0        0.0        0.0        0.0        0.0        0.0        0.0     14.2       3.8      24.2      28.9      33.6    387.43
    13     8  2009    43     2     390.2     9.4      0.0    0.0    6.4    3.0      0.6      0.0   -9.90      3.9      3.9    100      0.7      0.7   100      4.6     4.6     100     17.8    0.49      0      0      0      0     45     9.8     5.4      0     0.17      0.7      0.7      0.5   100    34.1     0.404    -9.9    0.000      19        0.00     390.2    262.2    0.49   163.2     217.9     156.6     146.6     115.2     115.2      98.2    0.000     0.000     0.000     0.000     0.000    0.49     0.00    0.00      0   -9.90   -9.00       36.2       33.2       32.6       32.1       32.1       32.0       32.0       32.0       32.0       32.0       32.0       32.0        0.0        0.0        0.0        0.0        0.0        0.0        0.0        0.0        0.0        0.0        0.0        0.0      9.4       4.2      21.5      27.1      32.8    387.43
    14     8  2009    44     2     385.8     0.0      0.0    0.0    0.0    0.0      0.6      0.0   -9.90      3.1      3.1    100      0.6      0.6   100      3.7     3.7     100     20.1    0.50      0      0      0      0     45    10.8     6.0      0     0.18      0.6      0.6      0.4   100    34.1     0.449    -9.9    0.000      20        0.00     385.8    257.9    0.50   160.5     220.3     158.3     146.5     115.4     115.4      99.2    0.000     0.000     0.000     0.000     0.000    0.50     0.00    0.00      0   -9.90   -9.00       30.6       33.7       32.8       32.4       32.2       32.1       32.1       32.0       32.0       32.0       32.0       32.0        0.0        0.0        0.0        0.0        0.0        0.0        0.0        0.0        0.0        0.0        0.0        0.0      0.0       3.4      26.3      29.7      33.1    387.43
    15     8  2009    45     2     385.3     5.4      0.0    0.0    4.6    0.8      0.8      0.0   -9.90      3.6      3.6    100      0.8      0.8   100      4.4     4.4     100     17.8    0.50      0      0      0      0     45    11.7     6.4      0     0.20      0.8      0.8      0.6   100    34.1     0.497    -9.9    0.000      20        0.00     385.3    257.2    0.50   161.3     222.7     160.0     149.4     117.4     117.4     100.3    0.000     0.000     0.000     0.000     0.000    0.50     0.00    0.00      0   -9.90   -9.00       30.8       32.9       32.4       32.4       32.3       32.2       32.1       32.1       32.0       32.0       32.0       32.0        0.0        0.0        0.0        0.0        0.0        0.0        0.0        0.0        0.0        0.0        0.0        0.0      5.4       4.0      21.6      26.8      32.0    387.43
    16     8  2009    46     2     380.0     0.0      0.0    0.0    0.0    0.0      0.9      0.0   -9.90      3.9      3.4     88      0.9      0.9   100      4.8     4.3      90     16.9    0.51      0      0      0      0     45    12.4     6.8      0     0.21      0.9      0.9      0.7   100    34.0     0.548    -9.9    0.000      21        0.00     380.0    251.9    0.51   157.7     225.1     161.7     151.9     119.2     119.2     101.4    0.000     0.000     0.000     0.000     0.000    0.51     0.00    0.00      0   -9.90   -9.00       26.5       32.5       32.2       32.2       32.2       32.2       32.1       32.1       32.1       32.0       32.0       32.0        0.0        0.0        0.0        0.0        0.0        0.0        0.0        0.0        0.0        0.0        0.0        0.0      0.0       4.4      19.8      26.3      32.8    387.43
    17     8  2009    47     2     380.4     6.0      0.0    0.0    5.7    0.3      0.9      0.0   -9.90      3.5      3.5    100      0.9      0.9   100      4.4     4.4     100     19.0    0.51      0      0      0      0     45    13.1     7.2      0     0.22      0.9      0.9      0.6   100    34.0     0.601    -9.9    0.000      21        0.00     380.4    252.4    0.51   160.1     227.4     163.4     152.6     119.9     119.9     102.4    0.000     0.000     0.000     0.000     0.000    0.51     0.00    0.00      0   -9.90   -9.00       27.8       32.2       32.1       32.1       32.1       32.1       32.1       32.0       32.0       32.0       32.0       32.0        0.0        0.0        0.0        0.0        0.0        0.0        0.0        0.0        0.0        0.0        0.0        0.0      6.0       4.0      24.0      28.8      33.6    387.43
    18     8  2009    48     2     380.7     6.0      0.0    0.0    5.5    0.5      0.7      0.0   -9.90      3.6      3.6    100      1.0      1.0   100      4.6     4.6     100     18.9    0.52      0      0      0      0     45    13.7     7.5      0     0.23      1.0      1.0      0.7   100    34.0     0.656    -9.9    0.000      22        0.00     380.7    252.8    0.52   162.4     229.8     165.1     154.6     121.4     121.4     103.5    0.000     0.000     0.000     0.000     0.000    0.52     0.00    0.00      0   -9.90   -9.00       28.7       32.1       32.0       32.0       32.0       32.0       32.0       32.0       32.0       32.0       32.0       32.0        0.0        0.0        0.0        0.0        0.0        0.0        0.0        0.0        0.0        0.0        0.0        0.0      6.0       4.2      23.9      29.1      34.3    387.43
    19     8  2009    49     2     381.5     6.0      0.0    0.0    5.5    0.5      0.5      0.0   -9.90      3.3      3.3    100      0.9      0.9   100      4.2     4.2     100     17.9    0.52      0      0      0      0     45    14.1     7.8      0     0.23      0.9      0.9      0.7   100    33.9     0.713    -9.9    0.000      22        0.00     381.5    253.7    0.52   165.1     232.1     166.7     155.5     122.2     122.2     104.5    0.000     0.000     0.000     0.000     0.000    0.52     0.00    0.00      0   -9.90   -9.00       29.9       32.0       32.0       32.0       32.0       32.0       32.0       32.0       32.0       32.0       32.0       32.0        0.0        0.0        0.0        0.0        0.0        0.0        0.0        0.0        0.0        0.0        0.0        0.0      6.0       3.9      21.8      26.7      31.6    387.43
    20     8  2009    50     2     377.2     0.0      0.0    0.0    0.0    0.0      0.3      0.0   -9.90      3.2      3.1     97      0.9      0.9   100      4.1     4.0      98     20.3    0.53      0      0      0      0     45    14.5     8.0      0     0.24      0.9      0.9      0.7   100    33.9     0.771    -9.9    0.000      23        0.00     377.2    249.4    0.53   162.6     234.4     168.4     156.8     123.3     123.3     105.6    0.000     0.000     0.000     0.000     0.000    0.53     0.00    0.00      0   -9.90   -9.00       25.9       32.0       31.9       31.9       31.9       31.9       31.9       31.9       31.9       31.9       31.9       31.9        0.0        0.0        0.0        0.0        0.0        0.0        0.0        0.0        0.0        0.0        0.0        0.0      0.0       3.8      26.6      30.6      34.6    387.43
    21     8  2009    51     2     373.8     0.0      0.0    0.0    0.0    0.0      0.2      0.0   -9.90      3.4      2.2     65      1.0      1.0   100      4.3     3.2      73     19.8    0.53      0      0      0      0     45    14.9     8.2      0     0.25      1.0      1.0      0.7   100    33.8     0.831    -9.9    0.000      23        0.00     373.8    246.2    0.53   161.0     236.7     170.1     158.8     124.8     124.8     106.6    0.000     0.000     0.000     0.000     0.000    0.53     0.00    0.00      0   -9.90   -9.00       22.7       31.9       31.9       31.9       31.9       31.9       31.9       31.9       31.9       31.9       31.9       31.9        0.0        0.0        0.0        0.0        0.0        0.0        0.0        0.0        0.0        0.0        0.0        0.0      0.0       4.0      25.5      30.0      34.5    387.43
    22     8  2009    52     2     381.1    13.5      0.0    0.0   11.9    1.6      0.1      0.0   -9.90      3.5      3.5    100      1.1      1.1   100      4.6     4.6     100     18.0    0.54      0      0      0      0     45    15.2     8.4      0     0.25      1.1      1.1      0.8   100    33.8     0.891    -9.9    0.000      24        0.00     381.1    253.5    0.54   170.0     239.0     171.7     160.8     126.3     126.3     107.7    0.000     0.000     0.000     0.000     0.000    0.54     0.00    0.00      0   -9.90   -9.00       30.1       31.9       31.9       31.9       31.9       31.9       31.9       31.9       31.9       31.9       31.9       31.9        0.0        0.0        0.0        0.0        0.0        0.0        0.0        0.0        0.0        0.0        0.0        0.0     13.5       4.2      22.0      27.1      32.2    387.43
    23     8  2009    53     2     382.5     6.8      0.0    0.0    5.8    1.0      0.1      0.0   -9.90      3.3      3.3    100      1.0      1.0   100      4.3     4.3     100     18.2    0.54      0      0      0      0     45    15.5     8.5      0     0.25      1.0      1.0      0.7   100    33.7     0.952    -9.9    0.000      24        0.00     382.5    254.9    0.54   173.0     241.3     173.4     161.9     127.2     127.2     108.7    0.000     0.000     0.000     0.000     0.000    0.54     0.00    0.00      0   -9.90   -9.00       31.6       31.9       31.9       31.9       31.9       31.9       31.9       31.9       31.9       31.9       31.9       31.9        0.0        0.0        0.0        0.0        0.0        0.0        0.0        0.0        0.0        0.0        0.0        0.0      6.8       4.0      22.4      27.2      32.0    387.43
    24     8  2009    54     2     387.1    13.5      0.0    0.0    8.5    5.0      0.0      0.0   -9.90      3.0      3.0    100      0.9      0.9   100      3.9     3.9     100     19.4    0.55      0      0      0      0     45    15.7     8.6      0     0.26      0.9      0.9      0.7   100    33.6     1.014    -9.9    0.000      24        0.00     387.1    259.5    0.55   179.3     243.6     175.0     162.4     127.8     127.8     109.7    0.000     0.000     0.000     0.000     0.000    0.55     0.00    0.00      0   -9.90   -9.00       36.2       31.9       31.9       31.9       31.9       31.9       31.9       31.9       31.9       31.9       31.9       31.9        0.0        0.0        0.0        0.0        0.0        0.0        0.0        0.0        0.0        0.0        0.0        0.0     13.5       3.6      24.7      28.6      32.5    387.43
    25     8  2009    55     2     393.9    27.0      0.0    0.0   10.8   16.2      0.1      0.0   -9.90      3.1      3.1    100      1.0      1.0   100      4.0     4.0     100     18.8    0.55      0      0      0      0     45    15.9     8.7      0     0.26      1.0      1.0      0.7   100    33.6     1.076    -9.9    0.000      25        0.00     393.9    266.2    0.55   187.6     245.8     176.6     164.2     129.2     129.2     110.7    0.000     0.000     0.000     0.000     0.000    0.55     0.00    0.00      0   -9.90   -9.00       40.4       33.5       32.4       32.2       32.0       31.9       31.9       31.9       31.9       31.9       31.9       31.9        0.0        0.0        0.0        0.0        0.0        0.0        0.0        0.0        0.0        0.0        0.0        0.0     27.0       3.7      23.5      27.6      31.8    387.43
    26     8  2009    56     2     389.8     0.0      0.0    0.0    0.0    0.0      0.3      0.0   -9.90      2.9      2.9    100      0.9      0.9   100      3.8     3.8     100     19.4    0.56      0      0      0      0     45    16.0     8.8      0     0.26      0.9      0.9      0.7   100    33.4     1.139    -9.9    0.000      25        0.00     389.8    262.0    0.56   184.7     248.1     178.2     165.2     130.0     130.0     111.7    0.000     0.000     0.000     0.000     0.000    0.56     0.00    0.00      0   -9.90   -9.00       32.8       34.9       33.5       32.5       32.2       32.1       32.0       32.0       32.0       32.0       31.9       31.9        0.0        0.0        0.0        0.0        0.0        0.0        0.0        0.0        0.0        0.0        0.0        0.0      0.0       3.5      24.8      28.4      32.0    387.43
    27     8  2009    57     2     390.9     8.8      0.0    0.0    6.2    2.6      0.7      0.0   -9.90      3.3      3.3    100      1.1      1.1   100      4.3     4.3     100     20.4    0.56      0      0      0      0     45    16.2     8.9      0     0.26      1.1      1.1      0.8   100    33.4     1.202    -9.9    0.000      25        0.00     390.9    262.8    0.56   186.7     250.3     179.8     167.9     132.0     132.0     112.8    0.000     0.000     0.000     0.000     0.000    0.56     0.00    0.00      0   -9.90   -9.00       34.2       33.6       33.0       32.8       32.5       32.3       32.2       32.1       32.1       32.0       32.0       32.0        0.0        0.0        0.0        0.0        0.0        0.0        0.0        0.0        0.0        0.0        0.0        0.0      8.8       4.0      26.9      31.1      35.4    387.43
    28     8  2009    58     2     395.4    22.1      0.0    0.0   10.0   12.1      1.3      0.0   -9.90      3.2      3.2    100      1.0      1.0   100      4.2     4.2     100     18.6    0.57      0      0      0      0     45    16.3     9.0      0     0.27      1.0      1.0      0.7   100    33.3     1.265    -9.9    0.000      26        0.00     395.4    267.0    0.57   192.4     252.5     181.4     169.2     133.0     133.0     113.8    0.000     0.000     0.000     0.000     0.000    0.57     0.00    0.00      0   -9.90   -9.00       39.0       33.2       32.8       32.6       32.5       32.4       32.3       32.2       32.2       32.1       32.1       32.1        0.0        0.0        0.0        0.0        0.0        0.0        0.0        0.0        0.0        0.0        0.0        0.0     22.1       3.9      23.3      27.6      32.0    387.43
    29     8  2009    59     2     389.8     0.0      0.0    0.0    0.0    0.0      1.6      0.0   -9.90      3.0      3.0    100      1.0      1.0   100      4.0     4.0     100     19.8    0.57      0      0      0      0     45    16.4     9.0      0     0.27      1.0      1.0      0.7   100    33.1     1.328    -9.9    0.000      26        0.00     389.8    261.2    0.57   188.2     254.8     183.0     170.1     133.9     133.9     114.8    0.000     0.000     0.000     0.000     0.000    0.57     0.00    0.00      0   -9.90   -9.00       31.8       34.4       33.2       32.6       32.4       32.3       32.3       32.2       32.2       32.1       32.1       32.1        0.0        0.0        0.0        0.0        0.0        0.0        0.0        0.0        0.0        0.0        0.0        0.0      0.0       3.7      25.5      29.4      33.2    387.43
    30     8  2009    60     2     383.4     0.0      0.0    0.0    0.0    0.0      1.7      0.0   -9.90      3.5      3.5    100      1.2      1.2   100      4.7     4.7     100     19.8    0.58      0      0      0      0     45    16.4     9.0      0     0.27      1.2      1.2      0.8   100    33.0     1.391    -9.9    0.000      26        0.00     383.4    254.9    0.58   183.6     257.0     184.6     173.2     136.0     136.0     115.8    0.000     0.000     0.000     0.000     0.000    0.58     0.00    0.00      0   -9.90   -9.00       27.1       33.3       32.6       32.6       32.4       32.3       32.3       32.2       32.2       32.1       32.1       32.1        0.0        0.0        0.0        0.0        0.0        0.0        0.0        0.0        0.0        0.0        0.0        0.0      0.0       4.3      25.5      30.1      34.8    387.43
    31     8  2009    61     2     387.8    13.2      0.0    0.0   10.6    2.6      1.6      0.0   -9.90      3.5      3.5    100      1.2      1.2   100      4.7     4.7     100     17.9    0.58      0      0      0      0     45    16.5     9.1      0     0.27      1.2      1.2      0.8   100    32.9     1.454    -9.9    0.000      26        0.00     387.8    259.3    0.58   189.7     259.2     186.2     174.7     137.2     137.2     116.7    0.000     0.000     0.000     0.000     0.000    0.58     0.00    0.00      0   -9.90   -9.00       33.1       32.7       32.3       32.3       32.3       32.3       32.2       32.2       32.1       32.1       32.1       32.1        0.0        0.0        0.0        0.0        0.0        0.0        0.0        0.0        0.0        0.0        0.0        0.0     13.2       4.3      21.7      26.9      32.1    387.43
     1     9  2009    62     2     382.1     0.0      0.0    0.0    0.0    0.0      1.3      0.0   -9.90      3.3      3.3    100      1.1      1.1   100      4.3     4.3     100     19.5    0.59      0      0      0      0     45    16.5     9.1      0     0.27      1.1      1.1      0.8   100    32.8     1.517    -9.9    0.000      27        0.00     382.1    253.8    0.59   185.9     261.4     187.8     175.3     137.8     137.8     117.7    0.000     0.000     0.000     0.000     0.000    0.59     0.00    0.00      0   -9.90   -9.00       28.2       32.6       32.3       32.2       32.1       32.1       32.1       32.1       32.1       32.1       32.1       32.1        0.0        0.0        0.0        0.0        0.0        0.0        0.0        0.0        0.0        0.0        0.0        0.0      0.0       4.0      25.0      29.3      33.5    387.43
     2     9  2009    63     2     376.1     0.0      0.0    0.0    0.0    0.0      1.0      0.0   -9.90      3.8      3.7    100      1.2      1.2   100      5.0     5.0     100     18.5    0.59      0      0      0      0     45    16.6     9.1      0     0.27      1.2      1.2      0.9   100    32.7     1.580    -9.9    0.000      27        0.00     376.1    248.0    0.59   181.8     263.6     189.4     178.4     140.0     140.0     118.7    0.000     0.000     0.000     0.000     0.000    0.59     0.00    0.00      0   -9.90   -9.00       23.2       32.3       32.1       32.1       32.1       32.1       32.1       32.0       32.0       32.0       32.0       32.0        0.0        0.0        0.0        0.0        0.0        0.0        0.0        0.0        0.0        0.0        0.0        0.0      0.0       4.6      23.0      28.5      34.0    387.43
     3     9  2009    64     2     381.4    11.4      0.0    0.0   10.4    1.0      0.7      0.0   -9.90      3.3      3.3    100      1.1      1.1   100      4.3     4.3     100     18.0    0.60      0      0      0      0     45    16.6     9.1      0     0.27      1.1      1.1      0.8   100    32.5     1.642    -9.9    0.000      27        0.00     381.4    253.4    0.60   189.0     265.7     190.9     178.3     140.1     140.1     119.7    0.000     0.000     0.000     0.000     0.000    0.60     0.00    0.00      0   -9.90   -9.00       29.3       32.1       32.0       32.0       32.0       32.0       32.0       32.0       32.0       32.0       32.0       32.0        0.0        0.0        0.0        0.0        0.0        0.0        0.0        0.0        0.0        0.0        0.0        0.0     11.4       4.0      22.0      26.5      31.0    387.43
     4     9  2009    65     2     376.5     0.0      0.0    0.0    0.0    0.0      0.5      0.0   -9.90      3.4      3.4    100      1.0      1.0   100      4.4     4.4     100     19.8    0.60     -9      0      0      0     45    16.1     8.9      0     0.26      1.0      1.0      0.7   100    32.3     1.701    -9.9    0.000      27        0.00     376.5    248.7    0.60   185.8     267.9     192.5     180.0     141.4     141.4     120.7    0.000     0.000     0.000     0.000     0.000    0.60     0.00    0.00      0   -9.90   -9.00       24.8       32.0       32.0       32.0       32.0       32.0       32.0       32.0       32.0       32.0       32.0       32.0        0.0        0.0        0.0        0.0        0.0        0.0        0.0        0.0        0.0        0.0        0.0        0.0      0.0       4.1      25.5      29.8      34.0    387.43
     5     9  2009    66     2     377.5     5.8      0.0    0.0    5.6    0.2      0.3      0.0   -9.90      3.2      3.2    100      1.0      1.0   100      4.2     4.2     100     18.4    0.61      0      0      0      0     45    16.2     8.9      0     0.26      1.0      1.0      0.7   100    32.1     1.760    -9.9    0.000      27        0.00     377.5    249.8    0.61   188.6     270.1     194.0     180.9     142.3     142.3     121.7    0.000     0.000     0.000     0.000     0.000    0.61     0.00    0.00      0   -9.90   -9.00       26.2       32.0       31.9       31.9       31.9       31.9       31.9       31.9       31.9       31.9       31.9       31.9        0.0        0.0        0.0        0.0        0.0        0.0        0.0        0.0        0.0        0.0        0.0        0.0      5.8       3.9      22.7      26.9      31.1    387.43
     6     9  2009    67     3     389.5    22.8      0.0    0.0   15.9    6.9      0.2      0.0   -9.90      2.9      2.9    100      0.9      0.9   100      3.8     3.8     100     19.0    0.61      0      0      0      0     45    16.2     8.9      0     0.26      0.9      0.9      0.6   100    32.0     1.818    -9.9    0.000      27        0.00     389.5    261.8    0.61   202.1     272.2     195.6     181.3     142.7     142.7     122.6    0.000     0.000     0.000     0.000     0.000    0.61     0.00    0.00      0   -9.90   -9.00       38.3       31.9       31.9       31.9       31.9       31.9       31.9       31.9       31.9       31.9       31.9       31.9        0.0        0.0        0.0        0.0        0.0        0.0        0.0        0.0        0.0        0.0        0.0        0.0     22.8       3.5      24.0      27.4      30.7    387.43
     7     9  2009    68     3     388.7     4.6      0.0    0.0    3.9    0.7      0.2      0.0   -9.90      3.4      3.4    100      1.1      1.1   100      4.5     4.5     100     19.4    0.62      0      0      0      0     45    16.2     8.9      0     0.26      1.1      1.1      0.8   100    31.8     1.877    -9.9    0.000      27        0.00     388.7    261.0    0.62   202.8     274.4     197.1     184.6     145.0     145.0     123.6    0.000     0.000     0.000     0.000     0.000    0.62     0.00    0.00      0   -9.90   -9.00       34.8       33.5       32.6       32.1       32.0       32.0       31.9       31.9       31.9       31.9       31.9       31.9        0.0        0.0        0.0        0.0        0.0        0.0        0.0        0.0        0.0        0.0        0.0        0.0      4.6       4.2      24.8      29.3      33.8    387.43
     8     9  2009    69     3     384.9     0.0      0.0    0.0    0.0    0.0      0.3      0.0   -9.90      2.8      2.5     90      0.9      0.9   100      3.7     3.4      92     20.0    0.62      0      0      0      0     45    16.2     8.9      0     0.26      0.9      0.9      0.6   100    31.7     1.935    -9.9    0.000      27        0.00     384.9    257.1    0.62   200.4     276.5     198.7     183.8     144.8     144.8     124.6    0.000     0.000     0.000     0.000     0.000    0.62     0.00    0.00      0   -9.90   -9.00       30.1       33.5       32.7       32.4       32.2       32.1       32.0       32.0       32.0       32.0       31.9       31.9        0.0        0.0        0.0        0.0        0.0        0.0        0.0        0.0        0.0        0.0        0.0        0.0      0.0       3.4      26.0      29.0      32.0    387.43
     9     9  2009    70     3     390.1    13.7      0.0    0.0    9.1    4.6      0.6      0.0   -9.90      2.5      2.5    100      0.8      0.8   100      3.3     3.3     100     18.9    0.63      0      0      0      0     45    16.2     8.9      0     0.26      0.8      0.8      0.6   100    31.5     1.993     1.4    0.028      27        0.01     390.1    262.1    0.63   206.8     278.7     200.2     184.4     145.4     145.4     125.5    0.000     0.000     0.000     0.000     0.000    0.63     0.00    0.00      0   -9.90   -9.00       35.9       32.8       32.4       32.4       32.3       32.2       32.1       32.1       32.0       32.0       32.0       32.0        0.0        0.0        0.0        0.0        0.0        0.0        0.0        0.0        0.0        0.0        0.0        0.0     13.7       3.1      24.4      26.9      29.4    387.43
    10     9  2009    71     3     392.8    13.7      0.0    0.0    8.0    5.7      0.9      0.0   -9.90      3.4      3.4    100      1.1      1.1   100      4.4     4.4     100     19.3    0.63      0      0      0      0     45    16.3     8.9      0     0.26      1.1      1.1      0.8   100    31.3     2.051     1.6    0.033      27        0.01     392.8    264.7    0.63   210.9     280.8     201.7     188.6     148.2     148.2     126.5    0.000     0.000     0.000     0.000     0.000    0.63     0.00    0.00      0   -9.90   -9.00       37.7       33.4       32.7       32.3       32.2       32.2       32.1       32.1       32.1       32.0       32.0       32.0        0.0        0.0        0.0        0.0        0.0        0.0        0.0        0.0        0.0        0.0        0.0        0.0     13.7       4.1      24.5      28.6      32.8    387.43
    11     9  2009    72     3     394.4    10.7      0.0    0.0    7.0    3.7      1.0      0.0   -9.90      3.3      3.3    100      1.0      1.0   100      4.3     4.3     100     20.0    0.64      0      0      0      0     45    16.3     8.9      0     0.26      1.0      1.0      0.7   100    31.2     2.109     1.8    0.038      28        0.01     394.4    266.3    0.64   214.0     282.9     203.3     189.8     149.2     149.2     127.4    0.000     0.000     0.000     0.000     0.000    0.64     0.00    0.00      0   -9.90   -9.00       37.8       34.2       33.1       32.5       32.3       32.2       32.1       32.1       32.1       32.1       32.0       32.0        0.0        0.0        0.0        0.0        0.0        0.0        0.0        0.0        0.0        0.0        0.0        0.0     10.7       4.0      26.0      29.8      33.5    387.43
    12     9  2009    73     3     389.3     0.0      0.0    0.0    0.0    0.0      1.2      0.0   -9.90      3.0      3.0    100      0.9      0.9   100      4.0     4.0     100     19.8    0.64     -9      0      0      0     45    16.0     8.8      0     0.25      0.9      0.9      0.7   100    31.0     2.164     2.0    0.044      28        0.02     389.3    261.0    0.64   210.1     285.0     204.8     190.3     149.8     149.8     128.4    0.000     0.000     0.000     0.000     0.000    0.64     0.00    0.00      0   -9.90   -9.00       31.2       34.6       33.3       32.7       32.5       32.3       32.2       32.2       32.1       32.1       32.1       32.0        0.0        0.0        0.0        0.0        0.0        0.0        0.0        0.0        0.0        0.0        0.0        0.0      0.0       3.7      25.6      29.0      32.4    387.43
    13     9  2009    74     3     383.7     0.0      0.0    0.0    0.0    0.0      1.4      0.0   -9.90      3.5      3.0     88      1.1      1.1   100      4.5     4.1      91     19.8    0.65     -9      0      0      0     45    16.0     8.8      0     0.25      1.1      1.1      0.8   100    30.8     2.219     2.3    0.050      28        0.02     383.7    255.3    0.65   205.8     287.1     206.3     193.2     151.8     151.8     129.3    0.000     0.000     0.000     0.000     0.000    0.65     0.00    0.00      0   -9.90   -9.00       27.1       33.4       32.7       32.7       32.5       32.4       32.3       32.2       32.2       32.1       32.1       32.1        0.0        0.0        0.0        0.0        0.0        0.0        0.0        0.0        0.0        0.0        0.0        0.0      0.0       4.2      25.5      29.6      33.7    387.43
    14     9  2009    75     3     387.3    10.7      0.0    0.0    9.0    1.7      1.6      0.0   -9.90      3.0      3.0    100      0.9      0.9   100      3.9     3.9     100     20.4    0.65     -9      0      0      0     45    16.0     8.8      0     0.25      0.9      0.9      0.6   100    30.6     2.274     2.5    0.058      28        0.02     387.3    258.8    0.65   210.9     289.2     207.8     192.9     151.8     151.8     130.3    0.000     0.000     0.000     0.000     0.000    0.65     0.00    0.00      0   -9.90   -9.00       32.2       32.8       32.3       32.3       32.3       32.3       32.2       32.2       32.2       32.1       32.1       32.1        0.0        0.0        0.0        0.0        0.0        0.0        0.0        0.0        0.0        0.0        0.0        0.0     10.7       3.6      26.7      29.8      32.8    387.43
    15     9  2009    76     3     380.9     0.0      0.0    0.0    0.0    0.0      1.4      0.0   -9.90      3.8      3.8    100      1.2      1.2   100      4.9     4.9     100     19.7    0.66     -9      0      0      0     45    16.1     8.8      0     0.25      1.2      1.2      0.8   100    30.4     2.329     2.8    0.066      28        0.02     380.9    252.6    0.66   206.3     291.3     209.3     197.2     154.7     154.7     131.2    0.000     0.000     0.000     0.000     0.000    0.66     0.00    0.00      0   -9.90   -9.00       27.2       32.4       32.2       32.2       32.2       32.2       32.1       32.1       32.1       32.1       32.1       32.1        0.0        0.0        0.0        0.0        0.0        0.0        0.0        0.0        0.0        0.0        0.0        0.0      0.0       4.6      25.4      30.2      35.0    387.43
    16     9  2009    77     3     386.4    14.6      0.0    0.0   11.4    3.2      1.1      0.0   -9.90      3.7      3.7    100      1.1      1.1   100      4.8     4.8     100     17.3    0.66     -9      0      0      0     45    16.1     8.8      0     0.25      1.1      1.1      0.8   100    30.3     2.384     3.2    0.075      28        0.03     386.4    258.3    0.66   213.6     293.4     210.8     198.3     155.6     155.6     132.2    0.000     0.000     0.000     0.000     0.000    0.66     0.00    0.00      0   -9.90   -9.00       33.7       32.2       32.1       32.1       32.1       32.1       32.0       32.0       32.0       32.0       32.0       32.0        0.0        0.0        0.0        0.0        0.0        0.0        0.0        0.0        0.0        0.0        0.0        0.0     14.6       4.5      20.6      25.9      31.2    387.43
    17     9  2009    78     3     381.8     0.0      0.0    0.0    0.0    0.0      0.7      0.0   -9.90      3.0      3.0    100      0.9      0.9   100      3.9     3.9     100     18.9    0.67     -9      0      0      0     45    16.1     8.9      0     0.25      0.9      0.9      0.7   100    30.1     2.438     3.5    0.086      28        0.03     381.8    253.8    0.67   210.8     295.5     212.3     197.0     155.1     155.1     133.1    0.000     0.000     0.000     0.000     0.000    0.67     0.00    0.00      0   -9.90   -9.00       29.1       32.5       32.2       32.1       32.0       32.0       32.0       32.0       32.0       32.0       32.0       32.0        0.0        0.0        0.0        0.0        0.0        0.0        0.0        0.0        0.0        0.0        0.0        0.0      0.0       3.6      23.8      27.0      30.1    387.43
    18     9  2009    79     3     384.8     9.7      0.0    0.0    7.8    1.9      0.5      0.0   -9.90      3.3      3.3    100      1.0      1.0   100      4.3     4.3     100     19.5    0.67     -9      0      0      0     45    16.1     8.9      0     0.25      1.0      1.0      0.7   100    29.9     2.492     3.9    0.098      28        0.03     384.8    256.9    0.67   215.4     297.5     213.8     199.6     156.9     156.9     134.0    0.000     0.000     0.000     0.000     0.000    0.67     0.00    0.00      0   -9.90   -9.00       32.6       32.2       32.1       32.1       32.0       32.0       32.0       32.0       32.0       32.0       32.0       32.0        0.0        0.0        0.0        0.0        0.0        0.0        0.0        0.0        0.0        0.0        0.0        0.0      9.7       4.0      25.0      28.9      32.8    387.43
    19     9  2009    80     4     380.5     0.0      0.0    0.0    0.0    0.0      0.4      0.0   -9.90      3.0      3.0    100      0.9      0.9   100      3.9     3.9     100     19.8    0.67     -9      0      0      0     45    16.1     8.9      0     0.25      0.9      0.9      0.7   100    29.6     2.545     4.4    0.112      28        0.04     380.5    252.7    0.67   212.7     299.6     215.3     199.8     157.2     157.2     135.0    0.000     0.000     0.000     0.000     0.000    0.67     0.00    0.00      0   -9.90   -9.00       28.4       32.3       32.1       32.0       32.0       32.0       32.0       32.0       32.0       32.0       32.0       31.9        0.0        0.0        0.0        0.0        0.0        0.0        0.0        0.0        0.0        0.0        0.0        0.0      0.0       3.6      25.5      28.4      31.3    387.43
    20     9  2009    81     4     375.8     0.0      0.0    0.0    0.0    0.0      0.3      0.0   -9.90      3.5      3.3     93      1.1      1.1   100      4.6     4.4      94     20.4    0.68     -9      0      0      0     45    16.1     8.9      0     0.25      1.1      1.1      0.8   100    29.4     2.599     4.9    0.127      28        0.04     375.8    248.0    0.68   209.5     301.7     216.7     203.3     159.6     159.6     135.9    0.000     0.000     0.000     0.000     0.000    0.68     0.00    0.00      0   -9.90   -9.00       24.0       32.1       32.0       32.0       32.0       32.0       32.0       32.0       32.0       31.9       31.9       31.9        0.0        0.0        0.0        0.0        0.0        0.0        0.0        0.0        0.0        0.0        0.0        0.0      0.0       4.3      26.7      30.6      34.6    387.43
    21     9  2009    82     4     372.6     0.0      0.0    0.0    0.0    0.0      0.3      0.0   -9.90      3.3      1.9     57      1.0      1.0   100      4.3     2.9      67     20.9    0.68     -9      0      0      0     45    16.2     8.9      0     0.25      1.0      1.0      0.7   100    29.2     2.652     5.4    0.143      28        0.05     372.6    244.9    0.68   207.8     303.7     218.2     203.7     160.2     160.2     136.8    0.000     0.000     0.000     0.000     0.000    0.68     0.00    0.00      0   -9.90   -9.00       21.2       32.0       32.0       32.0       32.0       32.0       31.9       31.9       31.9       31.9       31.9       31.9        0.0        0.0        0.0        0.0        0.0        0.0        0.0        0.0        0.0        0.0        0.0        0.0      0.0       4.0      27.8      31.1      34.5    387.43
    22     9  2009    83     4     373.9     5.2      0.0    0.0    5.2    0.0      0.2      0.0   -9.90      2.8      2.8    100      0.9      0.9   100      3.7     3.7     100     19.4    0.69     -9      0      0      0     45    16.2     8.9      0     0.25      0.9      0.9      0.6   100    29.0     2.704     6.0    0.162      28        0.05     373.9    246.2    0.69   210.7     305.8     219.7     203.3     160.1     160.1     137.7    0.000     0.000     0.000     0.000     0.000    0.69     0.00    0.00      0   -9.90   -9.00       22.7       32.0       31.9       31.9       31.9       31.9       31.9       31.9       31.9       31.9       31.9       31.9        0.0        0.0        0.0        0.0        0.0        0.0        0.0        0.0        0.0        0.0        0.0        0.0      5.2       3.4      24.9      27.6      30.3    387.43
    23     9  2009    84     4     369.5     0.0      0.0    0.0    0.0    0.0      0.1      0.0   -9.90      3.5      3.2     90      1.1      1.1   100      4.6     4.3      93     19.3    0.69     -9      0      0      0     45    16.2     8.9      0     0.25      1.1      1.1      0.8   100    28.8     2.757     6.6    0.182      28        0.06     369.5    241.8    0.69   207.8     307.8     221.1     207.4     162.9     162.9     138.6    0.000     0.000     0.000     0.000     0.000    0.69     0.00    0.00      0   -9.90   -9.00       19.5       30.8       31.9       31.9       31.9       31.9       31.9       31.9       31.9       31.9       31.9       31.9        0.0        0.0        0.0        0.0        0.0        0.0        0.0        0.0        0.0        0.0        0.0        0.0      0.0       4.3      24.6      28.8      33.0    387.43
    24     9  2009    85     4     366.5     0.0      0.0    0.0    0.0    0.0      0.1      0.0   -9.90      3.5      1.8     50      1.1      1.1   100      4.6     2.9      62     20.0    0.70     -9      0      0      0     45    16.2     8.9      0     0.26      1.1      1.1      0.8   100    28.5     2.808     7.2    0.203      28        0.06     366.5    238.9    0.70   206.3     309.8     222.6     208.8     164.0     164.0     139.6    0.000     0.000     0.000     0.000     0.000    0.70     0.00    0.00      0   -9.90   -9.00       17.7       29.7       31.9       31.9       31.9       31.9       31.9       31.9       31.9       31.9       31.9       31.9        0.0        0.0        0.0        0.0        0.0        0.0        0.0        0.0        0.0        0.0        0.0        0.0      0.0       4.3      26.0      29.9      33.8    387.43
    25     9  2009    86     4     376.8    15.6      0.0    0.0   14.1    1.5      0.0      0.0   -9.90      3.0      3.0    100      0.9      0.9   100      3.9     3.9     100     18.9    0.70     -9      0      0      0     45    16.2     8.9      0     0.26      0.9      0.9      0.7   100    28.3     2.860     7.8    0.224      28        0.07     376.8    249.1    0.70   218.0     311.9     224.1     208.0     163.7     163.7     140.5    0.000     0.000     0.000     0.000     0.000    0.70     0.00    0.00      0   -9.90   -9.00       28.0       29.7       31.9       31.9       31.9       31.9       31.9       31.9       31.9       31.9       31.9       31.9        0.0        0.0        0.0        0.0        0.0        0.0        0.0        0.0        0.0        0.0        0.0        0.0     15.6       3.6      23.8      26.9      30.0    387.43
    26     9  2009    87     4     372.0     0.0      0.0    0.0    0.0    0.0      0.0      0.0   -9.90      3.6      3.6    100      1.1      1.1   100      4.7     4.7     100     19.8    0.71     -9      0      0      0     45    16.2     8.9      0     0.26      1.1      1.1      0.8   100    28.0     2.911     8.5    0.247      28        0.07     372.0    244.4    0.71   214.7     313.9     225.5     211.8     166.3     166.3     141.4    0.000     0.000     0.000     0.000     0.000    0.71     0.00    0.00      0   -9.90   -9.00       23.2       29.7       31.9       31.9       31.9       31.9       31.9       31.9       31.9       31.9       31.9       31.9        0.0        0.0        0.0        0.0        0.0        0.0        0.0        0.0        0.0        0.0        0.0        0.0      0.0       4.4      25.5      29.8      34.1    387.43
    27     9  2009    88     4     366.8     0.0      0.0    0.0    0.0    0.0      0.0      0.0   -9.90      4.3      3.9     91      1.3      1.3   100      5.6     5.2      93     19.0    0.71     -9      0      0      0     45    16.2     8.9      0     0.26      1.3      1.3      0.9   100    27.8     2.961     9.1    0.269      28        0.08     366.8    239.2    0.71   210.9     315.9     227.0     215.7     168.9     168.9     142.3    0.000     0.000     0.000     0.000     0.000    0.71     0.00    0.00      0   -9.90   -9.00       19.3       28.4       31.9       31.9       31.9       31.9       31.9       31.9       31.9       31.9       31.9       31.9        0.0        0.0        0.0        0.0        0.0        0.0        0.0        0.0        0.0        0.0        0.0        0.0      0.0       5.2      24.0      29.8      35.5    387.43
    28     9  2009    89     4     363.8     0.0      0.0    0.0    0.0    0.0      0.0      0.0   -9.90      4.3      1.7     40      1.3      1.3   100      5.6     3.0      54     20.5    0.72     -9      0      0      0     45    16.1     8.9      0     0.25      1.3      1.3      0.9   100    27.5     3.011     9.7    0.293      28        0.09     363.8    236.2    0.72   209.4     317.9     228.4     217.1     170.0     170.0     143.2    0.000     0.000     0.000     0.000     0.000    0.72     0.00    0.00      0   -9.90   -9.00       17.6       27.1       31.9       31.9       31.9       31.9       31.9       31.9       31.9       31.9       31.9       31.9        0.0        0.0        0.0        0.0        0.0        0.0        0.0        0.0        0.0        0.0        0.0        0.0      0.0       5.2      27.0      32.2      37.4    387.43
    29     9  2009    90     4     361.6     0.0      0.0    0.0    0.0    0.0      0.0      0.0   -9.90      3.8      1.0     27      1.2      1.2   100      4.9     2.2      44     21.2    0.72     -9      0      0      0     45    16.1     8.8      0     0.25      1.2      1.2      0.8   100    27.3     3.060    10.3    0.316      28        0.09     361.6    234.0    0.72   208.6     319.9     229.9     216.6     169.9     169.9     144.1    0.000     0.000     0.000     0.000     0.000    0.72     0.00    0.00      0   -9.90   -9.00       16.6       25.9       31.9       31.9       31.9       31.9       31.9       31.9       31.9       31.9       31.9       31.9        0.0        0.0        0.0        0.0        0.0        0.0        0.0        0.0        0.0        0.0        0.0        0.0      0.0       4.6      28.4      32.5      36.6    387.43
[...]
    19    10  2019   110     4     326.6     0.0      0.0    0.0    0.0    0.0      0.0      0.0   -9.90      3.7      0.2      5      0.8      0.8   100      4.6     1.0      22     20.5    0.80     -9      0      0      0     45    14.1     7.8      0     0.18      0.8      0.8      0.6   100    24.1     3.791    22.8    0.864      25        0.29     326.6    199.0    0.80   199.0     355.2     255.2     239.7     188.2     188.2     160.0    0.000     0.000     0.000     0.000     0.000    0.80     0.00    0.00      0   -9.90   -9.00       12.2       19.5       19.5       20.2       31.9       31.9       31.9       31.9       31.9       31.9       31.9       31.9        0.0        0.0        0.0        0.0        0.0        0.0        0.0        0.0        0.0        0.0        0.0        0.0      0.0       4.4      27.0      30.6      34.2    410.21
    20    10  2019   111     4     325.5     0.0      0.0    0.0    0.0    0.0      0.0      0.0   -9.90      4.0      0.2      5      0.8      0.8   100      4.9     1.0      22     20.4    0.80     -9      0      0      0     45    14.0     7.7      0     0.18      0.8      0.8      0.6   100    23.9     3.822    23.4    0.895      25        0.30     325.5    197.9    0.80   197.9     355.2     255.2     240.8     188.9     188.9     160.0    0.000     0.000     0.000     0.000     0.000    0.80     0.00    0.00      0   -9.90   -9.00       12.0       19.5       19.5       19.3       31.9       31.9       31.9       31.9       31.9       31.9       31.9       31.9        0.0        0.0        0.0        0.0        0.0        0.0        0.0        0.0        0.0        0.0        0.0        0.0      0.0       4.7      26.7      30.8      34.9    410.21
    21    10  2019   112     4     324.3     0.0      0.0    0.0    0.0    0.0      0.0      0.0   -9.90      4.9      0.2      5      1.0      1.0   100      5.9     1.2      21     18.4    0.80     -9      0      0      0     45    13.8     7.6      0     0.18      1.0      1.0      0.7   100    23.6     3.852    24.0    0.926      25        0.31     324.3    196.7    0.80   196.7     355.2     255.2     244.4     191.1     191.1     160.0    0.000     0.000     0.000     0.000     0.000    0.80     0.00    0.00      0   -9.90   -9.00       11.7       19.5       19.5       19.3       30.9       31.9       31.9       31.9       31.9       31.9       31.9       31.9        0.0        0.0        0.0        0.0        0.0        0.0        0.0        0.0        0.0        0.0        0.0        0.0      0.0       5.7      22.7      29.1      35.6    410.21
    22    10  2019   113     4     323.1     0.0      0.0    0.0    0.0    0.0      0.0      0.0   -9.90      4.8      0.2      5      1.0      1.0   100      5.7     1.2      21     19.0    0.80     -9      0      0      0     45    13.6     7.5      0     0.17      1.0      1.0      0.7   100    23.4     3.880    24.7    0.957      25        0.32     323.1    195.5    0.80   195.5     355.2     255.2     244.0     190.8     190.8     160.0    0.000     0.000     0.000     0.000     0.000    0.80     0.00    0.00      0   -9.90   -9.00       11.5       19.5       19.5       19.3       29.9       31.9       31.9       31.9       31.9       31.9       31.9       31.9        0.0        0.0        0.0        0.0        0.0        0.0        0.0        0.0        0.0        0.0        0.0        0.0      0.0       5.6      24.0      30.1      36.2    410.21
    23    10  2019   114     4     322.0     0.0      0.0    0.0    0.0    0.0      0.0      0.0   -9.90      4.5      0.2      5      0.9      0.9   100      5.4     1.1      20     19.0    0.80     -9      0      0      0     45    13.4     7.3      0     0.16      0.9      0.9      0.6   100    23.2     3.908    25.3    0.988      25        0.33     322.0    194.4    0.80   194.4     355.2     255.2     242.9     190.2     190.2     160.0    0.000     0.000     0.000     0.000     0.000    0.80     0.00    0.00      0   -9.90   -9.00       11.3       19.5       19.5       19.3       29.1       31.9       31.9       31.9       31.9       31.9       31.9       31.9        0.0        0.0        0.0        0.0        0.0        0.0        0.0        0.0        0.0        0.0        0.0        0.0      0.0       5.3      24.0      29.5      35.0    410.21
    24    10  2019   115     4     321.0     0.0      0.0    0.0    0.0    0.0      0.0      0.0   -9.90      4.3      0.2      4      0.8      0.8   100      5.1     1.0      19     19.0    0.80     -9      0      0      0     45    13.1     7.2      0     0.16      0.8      0.8      0.6   100    23.0     3.934    25.9    1.019      25        0.33     321.0    193.4    0.80   193.4     355.2     255.2     241.9     189.5     189.5     160.0    0.000     0.000     0.000     0.000     0.000    0.80     0.00    0.00      0   -9.90   -9.00       11.1       19.5       19.5       19.3       28.3       31.9       31.9       31.9       31.9       31.9       31.9       31.9        0.0        0.0        0.0        0.0        0.0        0.0        0.0        0.0        0.0        0.0        0.0        0.0      0.0       5.0      24.0      29.1      34.2    410.21
    25    10  2019   116     4     320.2     0.0      0.0    0.0    0.0    0.0      0.0      0.0   -9.90      4.0      0.2      4      0.7      0.7   100      4.7     0.9      19     19.5    0.80     -9      0      0      0     45    12.8     7.0      0     0.15      0.7      0.7      0.5   100    22.8     3.959    26.5    1.050      25        0.34     320.2    192.6    0.80   192.6     355.2     255.2     240.4     188.6     188.6     160.0    0.000     0.000     0.000     0.000     0.000    0.80     0.00    0.00      0   -9.90   -9.00       10.9       19.5       19.5       19.3       27.6       31.9       31.9       31.9       31.9       31.9       31.9       31.9        0.0        0.0        0.0        0.0        0.0        0.0        0.0        0.0        0.0        0.0        0.0        0.0      0.0       4.6      25.0      29.2      33.4    410.21
    26    10  2019   117     4     319.3     0.0      0.0    0.0    0.0    0.0      0.0      0.0   -9.90      4.1      0.2      4      0.7      0.7   100      4.8     0.9      18     20.0    0.80     -9      0      0      0     45    12.4     6.8      0     0.14      0.7      0.7      0.5   100    22.6     3.982    27.2    1.081      25        0.35     319.3    191.7    0.80   191.7     355.2     255.2     241.2     189.1     189.1     160.0    0.000     0.000     0.000     0.000     0.000    0.80     0.00    0.00      0   -9.90   -9.00       10.7       19.5       19.5       19.3       26.9       31.9       31.9       31.9       31.9       31.9       31.9       31.9        0.0        0.0        0.0        0.0        0.0        0.0        0.0        0.0        0.0        0.0        0.0        0.0      0.0       4.8      26.0      30.4      34.8    410.21
    27    10  2019   118     4     318.5     0.0      0.0    0.0    0.0    0.0      0.0      0.0   -9.90      4.0      0.2      4      0.6      0.6   100      4.6     0.8      17     20.0    0.80     -9      0      0      0     45    12.0     6.6      0     0.13      0.6      0.6      0.4   100    22.4     4.004    27.8    1.112      25        0.36     318.5    190.9    0.80   190.9     355.2     255.2     240.4     188.6     188.6     160.0    0.000     0.000     0.000     0.000     0.000    0.80     0.00    0.00      0   -9.90   -9.00       10.6       19.5       19.5       19.3       26.3       31.9       31.9       31.9       31.9       31.9       31.9       31.9        0.0        0.0        0.0        0.0        0.0        0.0        0.0        0.0        0.0        0.0        0.0        0.0      0.0       4.6      26.0      30.2      34.4    410.21
    28    10  2019   119     4     317.6     0.0      0.0    0.0    0.0    0.0      0.0      0.0   -9.90      4.8      0.2      4      0.7      0.7   100      5.5     0.9      16     18.2    0.80     -9      0      0      0     45    11.6     6.4      0     0.13      0.7      0.7      0.5   100    22.3     4.024    28.4    1.143      25        0.37     317.6    190.0    0.80   190.0     355.2     255.2     243.7     190.6     190.6     160.0    0.000     0.000     0.000     0.000     0.000    0.80     0.00    0.00      0   -9.90   -9.00       10.4       19.5       19.5       19.3       25.6       31.9       31.9       31.9       31.9       31.9       31.9       31.9        0.0        0.0        0.0        0.0        0.0        0.0        0.0        0.0        0.0        0.0        0.0        0.0      0.0       5.5      22.4      28.8      35.1    410.21
    29    10  2019   120     4     316.8     0.0      0.0    0.0    0.0    0.0      0.0      0.0   -9.90      5.1      0.2      4      0.7      0.6    95      5.8     0.8      14     17.3    0.80     -9      5      0      0     45    11.1     6.1      0     0.11      0.7      0.6      0.5    95    22.1     4.041    29.0    1.173      25        0.38     316.8    189.2    0.80   189.2     355.2     255.2     245.1     191.5     191.5     160.0    0.000     0.000     0.000     0.000     0.000    0.80     0.00    0.00      0   -9.90   -9.00       10.2       19.5       19.5       19.3       24.9       31.9       31.9       31.9       31.9       31.9       31.9       31.9        0.0        0.0        0.0        0.0        0.0        0.0        0.0        0.0        0.0        0.0        0.0        0.0      0.0       5.9      20.5      28.1      35.7    410.21
    30    10  2019   121     4     316.1     0.0      0.0    0.0    0.0    0.0      0.0      0.0   -9.90      4.3      0.2      4      0.5      0.5    99      4.8     0.7      14     20.1    0.80     -9      1      0      0     45    10.5     5.8      0     0.10      0.5      0.5      0.4    99    22.0     4.058    29.6    1.203      25        0.39     316.1    188.5    0.80   188.5     355.2     255.2     241.5     189.3     189.3     160.0    0.000     0.000     0.000     0.000     0.000    0.80     0.00    0.00      0   -9.90   -9.00       10.0       19.5       19.5       19.3       24.4       31.9       31.9       31.9       31.9       31.9       31.9       31.9        0.0        0.0        0.0        0.0        0.0        0.0        0.0        0.0        0.0        0.0        0.0        0.0      0.0       4.9      26.2      30.9      35.5    410.21
    31    10  2019   122     4     315.5     0.0      0.0    0.0    0.0    0.0      0.0      0.0   -9.90      4.9      0.2      4      0.5      0.5    92      5.4     0.7      12     18.0    0.80     -9      8      0      0     45     9.8     5.4      0     0.09      0.5      0.5      0.3    92    21.9     4.071    30.3    1.232      25        0.40     315.5    187.9    0.80   187.9     355.2     255.2     244.0     190.8     190.8     160.0    0.000     0.000     0.000     0.000     0.000    0.80     0.00    0.00      0   -9.90   -9.00       10.0       19.3       19.5       19.3       24.0       31.9       31.9       31.9       31.9       31.9       31.9       31.9        0.0        0.0        0.0        0.0        0.0        0.0        0.0        0.0        0.0        0.0        0.0        0.0      0.0       5.6      22.0      28.6      35.2    410.21
     1    11  2019   123     4     314.9     0.0      0.0    0.0    0.0    0.0      0.0      0.0   -9.90      5.1      0.2      4      0.4      0.4    89      5.6     0.6      10     18.0    0.80     -9     11      0      0     45     9.0     5.0      0     0.08      0.4      0.4      0.3    89    21.8     4.081    30.9    1.261      25        0.41     314.9    187.3    0.80   187.3     355.2     255.2     244.7     191.3     191.3     160.0    0.000     0.000     0.000     0.000     0.000    0.80     0.00    0.00      0   -9.90   -9.00       10.0       19.2       19.5       19.3       23.6       31.9       31.9       31.9       31.9       31.9       31.9       31.9        0.0        0.0        0.0        0.0        0.0        0.0        0.0        0.0        0.0        0.0        0.0        0.0      0.0       5.8      22.0      29.1      36.2    410.21
     2    11  2019   124     4     314.4     0.0      0.0    0.0    0.0    0.0      0.0      0.0   -9.90      5.4      0.2      4      0.4      0.3    86      5.7     0.5       9     17.7    0.80     -9     14      0      0     45     8.1     4.5      0     0.06      0.4      0.3      0.2    86    21.7     4.090    31.5    1.289      25        0.41     314.4    186.8    0.80   186.8     355.2     255.2     245.5     191.7     191.7     160.0    0.000     0.000     0.000     0.000     0.000    0.80     0.00    0.00      0   -9.90   -9.00       10.0       19.0       19.5       19.3       23.3       31.9       31.9       31.9       31.9       31.9       31.9       31.9        0.0        0.0        0.0        0.0        0.0        0.0        0.0        0.0        0.0        0.0        0.0        0.0      0.0       6.0      21.4      29.0      36.6    410.21
     3    11  2019   125     4     314.0     0.0      0.0    0.0    0.0    0.0      0.0      0.0   -9.90      4.8      0.2      4      0.3      0.2    88      5.0     0.4       8     19.8    0.80     -9     12      0      0     45     7.1     3.9      0     0.05      0.3      0.2      0.2    88    21.6     4.096    32.1    1.316      25        0.42     314.0    186.4    0.80   186.4     355.2     255.2     242.9     190.2     190.2     160.0    0.000     0.000     0.000     0.000     0.000    0.80     0.00    0.00      0   -9.90   -9.00       10.0       18.8       19.5       19.3       23.0       31.9       31.9       31.9       31.9       31.9       31.9       31.9        0.0        0.0        0.0        0.0        0.0        0.0        0.0        0.0        0.0        0.0        0.0        0.0      0.0       5.3      25.6      31.1      36.6    410.21
     4    11  2019   126     4     313.7     0.0      0.0    0.0    0.0    0.0      0.0      0.0   -9.90      5.3      0.2      3      0.2      0.2    84      5.5     0.3       6     19.8    0.80     -9     16      0      0     45     5.9     3.3      0     0.03      0.2      0.2      0.1    84    21.6     4.101    32.8    1.343      25        0.43     313.7    186.1    0.80   186.1     355.2     255.2     244.7     191.3     191.3     160.0    0.000     0.000     0.000     0.000     0.000    0.80     0.00    0.00      0   -9.90   -9.00       10.0       18.6       19.5       19.3       22.9       31.9       31.9       31.9       31.9       31.9       31.9       31.9        0.0        0.0        0.0        0.0        0.0        0.0        0.0        0.0        0.0        0.0        0.0        0.0      0.0       5.8      25.5      31.8      38.1    410.21
     5    11  2019   127     4     313.4     0.0      0.0    0.0    0.0    0.0      0.0      0.0   -9.90      5.1      0.2      3      0.1      0.1    85      5.2     0.3       5     19.0    0.80     -9     15      0      0     45     4.6     2.5      0     0.02      0.1      0.1      0.1    85    21.6     4.104    33.0    1.354      25        0.43     313.4    185.8    0.80   185.8     355.2     255.2     243.3     190.4     190.4     160.0    0.000     0.000     0.000     0.000     0.000    0.80     0.00    0.00      0   -9.90   -9.00       10.0       18.4       19.5       19.3       22.8       31.9       31.9       31.9       31.9       31.9       31.9       31.9        0.0        0.0        0.0        0.0        0.0        0.0        0.0        0.0        0.0        0.0        0.0        0.0      0.0       5.4      24.0      30.0      36.0    410.21
     6    11  2019   128     4     313.2     0.0      0.0    0.0    0.0    0.0      0.0      0.0   -9.90      5.0      0.2      3      0.0      0.0    86      5.1     0.2       4     20.1    0.80     -9     14      0      0     45     3.1     1.7      0     0.01      0.0      0.0      0.0    86    21.6     4.105    33.0    1.354      25        0.43     313.2    185.6    0.80   185.6     355.2     255.2     242.6     190.0     190.0     160.0    0.000     0.000     0.000     0.000     0.000    0.80     0.00    0.00      0   -9.90   -9.00       10.0       18.3       19.5       19.3       22.7       31.9       31.9       31.9       31.9       31.9       31.9       31.9        0.0        0.0        0.0        0.0        0.0        0.0        0.0        0.0        0.0        0.0        0.0        0.0      0.0       5.2      26.2      31.4      36.6    410.21
     7    11  2019   129     4     313.0     0.0      0.0    0.0    0.0    0.0      0.0      0.0   -9.90      6.4      0.2      3      0.0      0.0    78      6.4     0.2       3     15.4    0.80     -9     22      0      0     45     1.4     0.7      0     0.00      0.0      0.0      0.0    78    21.6     4.105    33.0    1.354      25        0.43     313.0    185.4    0.80   185.4     355.2     255.2     246.9     192.6     192.6     160.0    0.000     0.000     0.000     0.000     0.000    0.80     0.00    0.00      0   -9.90   -9.00       10.0       18.1       19.5       19.3       22.7       31.9       31.9       31.9       31.9       31.9       31.9       31.9        0.0        0.0        0.0        0.0        0.0        0.0        0.0        0.0        0.0        0.0        0.0        0.0      0.0       6.4      16.8      26.7      36.6    410.21
     8    11  2019    -9     0     312.8     0.0      0.0    0.0    0.0    0.0      0.0      0.0   -9.90      5.9      0.2      3      0.0      0.0   100      5.9     0.2       3     18.0    0.80     -9     -9      0      0     -9     0.0     0.0      0    -9.00      0.0      0.0      0.0   100    21.6     4.105    33.0    1.354      25        0.43     312.8    185.2    0.80   185.2     355.2     255.2     245.1     191.5     191.5     160.0    0.000     0.000     0.000     0.000     0.000    0.80     0.00    0.00      0   -9.90   -9.00       10.0       17.9       19.5       19.3       22.7       31.9       31.9       31.9       31.9       31.9       31.9       31.9        0.0        0.0        0.0        0.0        0.0        0.0        0.0        0.0        0.0        0.0        0.0        0.0      0.0       5.9      22.0      29.5      37.0    410.21
     9    11  2019    -9     0     312.6     0.0      0.0    0.0    0.0    0.0      0.0      0.0   -9.90      5.5      0.2      3      0.0      0.0   100      5.5     0.2       3     18.7    0.80     -9     -9      0      0     -9     0.0     0.0      0    -9.00      0.0      0.0      0.0   100    21.6     4.105    33.0    1.354      25        0.43     312.6    185.0    0.80   185.0     355.2     255.2     245.1     190.6     191.5     160.0    0.000     0.000     0.000     0.000     0.000    0.80     0.00    0.00      0   -9.90   -9.00       10.0       17.7       19.5       19.3       22.7       31.9       31.9       31.9       31.9       31.9       31.9       31.9        0.0        0.0        0.0        0.0        0.0        0.0        0.0        0.0        0.0        0.0        0.0        0.0      0.0       5.5      23.4      29.9      36.4    410.21
    10    11  2019    -9     0     312.4     0.0      0.0    0.0    0.0    0.0      0.0      0.0   -9.90      5.6      0.2      3      0.0      0.0   100      5.6     0.2       3     18.0    0.80     -9     -9      0      0     -9     0.0     0.0      0    -9.00      0.0      0.0      0.0   100    21.6     4.105    33.0    1.354      25        0.43     312.4    184.8    0.80   184.8     355.2     255.2     245.1     190.8     191.5     160.0    0.000     0.000     0.000     0.000     0.000    0.80     0.00    0.00      0   -9.90   -9.00       10.0       17.5       19.5       19.3       22.7       31.9       31.9       31.9       31.9       31.9       31.9       31.9        0.0        0.0        0.0        0.0        0.0        0.0        0.0        0.0        0.0        0.0        0.0        0.0      0.0       5.6      22.0      28.9      35.8    410.21
