AquaCrop 6.0 (March 2017) - Output created on (date) : 14/07/2022   at (time) : 11:09:20

    RunNr     Day1   Month1    Year1     Rain      ETo       GD     CO2      Irri   Infilt   Runoff    Drain   Upflow        E     E/Ex       Tr      TrW   Tr/Trx    SaltIn   SaltOut    SaltUp  SaltProf     Cycle   SaltStr  FertStr  WeedStr  TempStr   ExpStr   StoStr  BioMass  Brelative   HI     Yield     WPet     DayN   MonthN    YearN
                                           mm       mm    °C.day    ppm        mm       mm       mm       mm       mm       mm        %       mm       mm        %    ton/ha    ton/ha    ton/ha    ton/ha      days       %        %        %        %        %        %    ton/ha        %       %    ton/ha    kg/m3
   Tot(1)        2        7     2009    355.6    582.3   2551.7   387.43      0.0    315.7     39.9      5.9      0.0    289.8       54     86.8     62.2      100     0.000     0.000     0.000     0.000      123        0       62       45        0        2        0     4.089       25     33.0    1.349     0.36       10       11     2009  NO_0°-40%.PRM
   Tot(2)        2        7     2010    350.3    576.8   2505.5   389.90      0.0    306.0     44.3      0.0      0.0    274.6       52     87.0     62.3      100     0.000     0.000     0.000     0.000      123        0       62       45        0        5        0     4.081       25     33.0    1.347     0.37       10       11     2010  NO_0°-40%.PRM
   Tot(3)        2        7     2011    252.3    623.4   2494.2   391.65      0.0    237.2     15.1      2.0      0.0    232.9       41     85.0     60.8       94     0.000     0.000     0.000     0.000      121        0       62       45        0        7        8     3.863       23     31.9    1.231     0.39       10       11     2011  NO_0°-40%.PRM
   Tot(4)        2        7     2012    409.8    594.3   2518.9   393.85      0.0    340.8     69.0     18.6      0.0    296.3       55     90.5     64.7      100     0.000     0.000     0.000     0.000      123        0       62       45        0        1        0     4.108       25     33.0    1.356     0.35       10       11     2012  NO_0°-40%.PRM
   Tot(5)        2        7     2013    295.1    579.6   2524.3   396.52      0.0    269.2     25.9      0.9      0.0    254.9       48     83.5     59.7      100     0.000     0.000     0.000     0.000      123        0       62       45        0        8        1     4.023       24     33.0    1.327     0.39       10       11     2013  NO_0°-40%.PRM
   Tot(6)        2        7     2014    224.7    617.7   2517.4   398.65      0.0    218.2      6.5      0.0      0.0    215.4       38     85.4     61.0       94     0.000     0.000     0.000     0.000      123        0       62       45        0       14        7     3.932       24     32.9    1.293     0.43       10       11     2014  NO_0°-40%.PRM
   Tot(7)        2        7     2015    361.2    611.1   2489.7   400.83      0.0    331.1     30.1      0.0      0.0    299.5       54     92.3     66.0      100     0.000     0.000     0.000     0.000      123        0       62       45        0        9        0     4.107       25     33.0    1.355     0.35       10       11     2015  NO_0°-40%.PRM
   Tot(8)        2        7     2016    291.7    615.7   2471.9   404.21      0.0    276.2     15.5      0.5      0.0    256.9       46     91.0     65.1       99     0.000     0.000     0.000     0.000      123        0       62       45        0        4        2     4.115       25     33.0    1.359     0.39       10       11     2016  NO_0°-40%.PRM
   Tot(9)        2        7     2017    284.9    626.1   2501.3   406.21      0.0    252.4     32.5      4.3      0.0    249.4       43     82.8     59.2       92     0.000     0.000     0.000     0.000      117        0       62       45        0        3        9     3.849       23     29.8    1.146     0.35       10       11     2017  NO_0°-40%.PRM
  Tot(10)        2        7     2018    231.0    600.6   2512.4   408.21      0.0    214.2     16.8      0.0      0.0    209.4       38     84.5     60.4       96     0.000     0.000     0.000     0.000      123        0       62       45        0       14        6     3.976       24     32.9    1.308     0.45       10       11     2018  NO_0°-40%.PRM
  Tot(11)        2        7     2019    241.3    604.4   2485.3   410.21      0.0    212.9     28.4      0.0      0.0    202.1       36     86.8     62.1       98     0.000     0.000     0.000     0.000      123        0       62       45        0       12        3     4.047       24     33.0    1.334     0.46       10       11     2019  NO_0°-40%.PRM
