AquaCrop 6.0 (March 2017) - Output created on (date) : 14/07/2022   at (time) : 11:09:19

    RunNr     Day1   Month1    Year1     Rain      ETo       GD     CO2      Irri   Infilt   Runoff    Drain   Upflow        E     E/Ex       Tr      TrW   Tr/Trx    SaltIn   SaltOut    SaltUp  SaltProf     Cycle   SaltStr  FertStr  WeedStr  TempStr   ExpStr   StoStr  BioMass  Brelative   HI     Yield     WPet     DayN   MonthN    YearN
                                           mm       mm    °C.day    ppm        mm       mm       mm       mm       mm       mm        %       mm       mm        %    ton/ha    ton/ha    ton/ha    ton/ha      days       %        %        %        %        %        %    ton/ha        %       %    ton/ha    kg/m3
   Tot(1)        2        7     2009    592.3    582.3   2551.7   387.43      0.0    412.2    180.1     62.5      0.0    323.8       61     87.9     62.9      100     0.000     0.000     0.000     0.000      123        0       62       45        0        0        0     4.119       25     33.0    1.359     0.33       10       11     2009  NO_0°-0%.PRM
   Tot(2)        2        7     2010    584.3    576.8   2505.5   389.90      0.0    410.7    173.6     53.5      0.0    320.4       61     88.2     63.1      100     0.000     0.000     0.000     0.000      123        0       62       45        0        0        0     4.120       25     33.0    1.360     0.33       10       11     2010  NO_0°-0%.PRM
   Tot(3)        2        7     2011    421.4    623.4   2494.2   391.65      0.0    330.8     90.6     20.6      0.0    286.7       50     93.7     67.0      100     0.000     0.000     0.000     0.000      123        0       62       45        0        2        1     4.099       25     33.0    1.353     0.36       10       11     2011  NO_0°-0%.PRM
   Tot(4)        2        7     2012    682.9    593.2   2518.9   393.85      0.0    454.2    228.7     83.0      0.0    333.7       62     90.9     65.0      100     0.000     0.000     0.000     0.000      123        0       62       45        0        0        0     4.128       25     33.0    1.362     0.32       10       11     2012  NO_0°-0%.PRM
   Tot(5)        2        7     2013    492.2    578.6   2524.3   396.52      0.0    368.7    123.5     46.1      0.0    295.6       56     85.3     61.0      100     0.000     0.000     0.000     0.000      123        0       62       45        0        4        0     4.088       25     33.0    1.349     0.35       10       11     2013  NO_0°-0%.PRM
   Tot(6)        2        7     2014    374.3    616.8   2517.4   398.65      0.0    309.7     64.6     13.3      0.0    262.9       47     92.0     65.7      100     0.000     0.000     0.000     0.000      123        0       62       45        0        8        0     4.125       25     33.0    1.361     0.39       10       11     2014  NO_0°-0%.PRM
   Tot(7)        2        7     2015    601.8    610.0   2489.7   400.83      0.0    425.9    175.9     42.8      0.0    340.3       61     92.1     65.8      100     0.000     0.000     0.000     0.000      123        0       62       45        0        4        0     4.085       25     33.0    1.348     0.31       10       11     2015  NO_0°-0%.PRM
   Tot(8)        2        7     2016    486.6    614.9   2471.9   404.21      0.0    368.8    117.8     37.6      0.0    294.2       52     91.2     65.2      100     0.000     0.000     0.000     0.000      123        0       62       45        0        2        0     4.120       25     33.0    1.360     0.35       10       11     2016  NO_0°-0%.PRM
   Tot(9)        2        7     2017    474.6    625.4   2501.3   406.21      0.0    338.4    136.2     36.7      0.0    288.4       51     91.5     65.5       97     0.000     0.000     0.000     0.000      123        0       62       45        0        1        5     4.071       24     32.9    1.340     0.35       10       11     2017  NO_0°-0%.PRM
  Tot(10)        2        7     2018    384.5    599.3   2512.4   408.21      0.0    293.8     90.7     17.5      0.0    258.2       47     88.9     63.6      100     0.000     0.000     0.000     0.000      123        0       62       45        0        9        1     4.123       25     33.0    1.360     0.39       10       11     2018  NO_0°-0%.PRM
  Tot(11)        2        7     2019    402.1    565.2   2485.3   410.21      0.0    284.5    117.6     38.1      0.0    226.4       43     78.7     56.3      100     0.000     0.000     0.000     0.000      123        0       62       45        0        9        0     4.140       25     33.0    1.366     0.45       10       11     2019  NO_0°-0%.PRM
