AquaCrop 7.0 (August 2022) - Output created on (date) : 27-10-2022   at (time) : 12:37:24

   Run:   1
   Day Month  Year   DAP Stage   WC(1.20)   Rain     Irri   Surf   Infilt   RO    Drain       CR    Zgwt       Ex       E     E/Ex     Trx       Tr  Tr/Trx    ETx      ET  ET/ETx      GD       Z     StExp  StSto  StSen StSalt StWeed   CC      CCw     StTr  Kc(Tr)     Trx       Tr      TrW  Tr/Trx   WP    Biomass     HI    Y(dry)  Y(fresh)  Brelative    WPet      Bin     Bout  WC(1.20) Wr(0.80)     Z       Wr    Wr(SAT)    Wr(FC)   Wr(exp)   Wr(sto)   Wr(sen)   Wr(PWP)    SaltIn    SaltOut   SaltUp   Salt(1.20)  SaltZ     Z       ECe    ECsw   StSalt  Zgwt    ECgw       WC01       WC 2       WC 3       WC 4       WC 5       WC 6       WC 7       WC 8       WC 9       WC10       WC11       WC12      ECe01      ECe 2      ECe 3      ECe 4      ECe 5      ECe 6      ECe 7      ECe 8      ECe 9      ECe10      ECe11      ECe12     Rain       ETo      Tmin      Tavg      Tmax      CO2
                                      mm      mm       mm     mm     mm     mm       mm       mm      m        mm       mm     %        mm       mm    %        mm      mm       %  degC-day     m       %      %      %      %      %      %       %       %       -        mm       mm       mm    %     g/m2    ton/ha      %    ton/ha   ton/ha       %       kg/m3   ton/ha   ton/ha      mm       mm       m       mm        mm        mm        mm        mm        mm         mm    ton/ha    ton/ha    ton/ha    ton/ha    ton/ha     m      dS/m    dS/m      %     m      dS/m       0.05       0.15       0.25       0.35       0.45       0.55       0.65       0.75       0.85       0.95       1.05       1.15       0.05       0.15       0.25       0.35       0.45       0.55       0.65       0.75       0.85       0.95       1.05       1.15       mm        mm     degC      degC      degC       ppm
    15     3  2011     1     1     417.4     0.0      0.0    0.0    0.0    0.0      0.0      0.0   -9.90      3.0      2.6     87      0.0      0.0   100      3.0     2.6      87      6.9    0.30     -9     -9     -9      0     -9     0.0     0.0      0    -9.00      0.0      0.0      0.0   100     0.0     0.000    -9.9    0.000    0.000      -9        0.00    0.000    0.000     417.4    277.4    0.30   102.4     141.6     105.0      98.8      77.8      76.2      63.9    0.000     0.000     0.000     0.000     0.000    0.30     0.00    0.00      0   -9.90   -9.00       32.4       35.0       35.0       35.0       35.0       35.0       35.0       35.0       35.0       35.0       35.0       35.0        0.0        0.0        0.0        0.0        0.0        0.0        0.0        0.0        0.0        0.0        0.0        0.0      0.0       2.7       3.6      11.9      20.1    391.63
    16     3  2011     2     1     415.5     0.0      0.0    0.0    0.0    0.0      0.0      0.0   -9.90      2.9      1.9     67      0.0      0.0   100      2.9     1.9      67      7.5    0.30     -9     -9     -9      0     -9     0.0     0.0      0    -9.00      0.0      0.0      0.0   100     0.0     0.000    -9.9    0.000    0.000      -9        0.00    0.000    0.000     415.5    275.5    0.30   100.5     141.6     105.0      98.8      77.7      76.2      63.9    0.000     0.000     0.000     0.000     0.000    0.30     0.00    0.00      0   -9.90   -9.00       30.5       35.0       35.0       35.0       35.0       35.0       35.0       35.0       35.0       35.0       35.0       35.0        0.0        0.0        0.0        0.0        0.0        0.0        0.0        0.0        0.0        0.0        0.0        0.0      0.0       2.6       6.4      12.5      18.6    391.63
    17     3  2011     3     1     415.7     1.4      0.0    0.0    1.4    0.0      0.0      0.0   -9.90      1.2      1.2    100      0.0      0.0   100      1.2     1.2     100      0.0    0.30     -9     -9     -9      0     -9     0.0     0.0      0    -9.00      0.0      0.0      0.0   100     0.0     0.000    -9.9    0.000    0.000      -9        0.00    0.000    0.000     415.7    275.7    0.30   100.7     141.6     105.0      98.8      76.1      76.2      63.9    0.000     0.000     0.000     0.000     0.000    0.30     0.00    0.00      0   -9.90   -9.00       30.7       35.0       35.0       35.0       35.0       35.0       35.0       35.0       35.0       35.0       35.0       35.0        0.0        0.0        0.0        0.0        0.0        0.0        0.0        0.0        0.0        0.0        0.0        0.0      1.4       1.1       2.0       4.3       6.6    391.63
    18     3  2011     4     1     415.4     0.2      0.0    0.0    0.2    0.0      0.0      0.0   -9.90      0.4      0.4     99      0.0      0.0   100      0.4     0.4      99      0.0    0.30     -9     -9     -9      0     -9     0.0     0.0      0    -9.00      0.0      0.0      0.0   100     0.0     0.000    -9.9    0.000    0.000      -9        0.00    0.000    0.000     415.4    275.4    0.30   100.4     141.6     105.0      98.8      75.3      76.2      63.9    0.000     0.000     0.000     0.000     0.000    0.30     0.00    0.00      0   -9.90   -9.00       30.4       35.0       35.0       35.0       35.0       35.0       35.0       35.0       35.0       35.0       35.0       35.0        0.0        0.0        0.0        0.0        0.0        0.0        0.0        0.0        0.0        0.0        0.0        0.0      0.2       0.4       1.2       2.0       2.8    391.63
    19     3  2011     5     1     414.5     0.0      0.0    0.0    0.0    0.0      0.0      0.0   -9.90      1.0      0.9     92      0.0      0.0   100      1.0     0.9      92      0.0    0.30     -9     -9     -9      0     -9     0.0     0.0      0    -9.00      0.0      0.0      0.0   100     0.0     0.000    -9.9    0.000    0.000      -9        0.00    0.000    0.000     414.5    274.5    0.30    99.5     141.6     105.0      98.8      75.9      76.2      63.9    0.000     0.000     0.000     0.000     0.000    0.30     0.00    0.00      0   -9.90   -9.00       29.5       35.0       35.0       35.0       35.0       35.0       35.0       35.0       35.0       35.0       35.0       35.0        0.0        0.0        0.0        0.0        0.0        0.0        0.0        0.0        0.0        0.0        0.0        0.0      0.0       0.9       0.9       2.9       4.9    391.63
    20     3  2011     6     1     413.3     0.0      0.0    0.0    0.0    0.0      0.0      0.0   -9.90      1.5      1.2     81      0.0      0.0   100      1.5     1.2      81      0.0    0.30     -9     -9     -9      0     -9     0.0     0.0      0    -9.00      0.0      0.0      0.0   100     0.0     0.000    -9.9    0.000    0.000      -9        0.00    0.000    0.000     413.3    273.3    0.30    98.3     141.6     105.0      98.8      76.4      76.2      63.9    0.000     0.000     0.000     0.000     0.000    0.30     0.00    0.00      0   -9.90   -9.00       28.3       35.0       35.0       35.0       35.0       35.0       35.0       35.0       35.0       35.0       35.0       35.0        0.0        0.0        0.0        0.0        0.0        0.0        0.0        0.0        0.0        0.0        0.0        0.0      0.0       1.4       2.1       4.9       7.7    391.63
    21     3  2011     7     1     411.7     0.0      0.0    0.0    0.0    0.0      0.0      0.0   -9.90      2.4      1.6     67      0.0      0.0   100      2.4     1.6      67      0.0    0.31     -9     -9     -9      0     -9     0.0     0.0      0    -9.00      0.0      0.0      0.0   100     0.0     0.000    -9.9    0.000    0.000      -9        0.00    0.000    0.000     411.7    271.7    0.31    98.6     144.2     107.0     100.7      78.7      77.7      65.1    0.000     0.000     0.000     0.000     0.000    0.31     0.00    0.00      0   -9.90   -9.00       26.7       35.0       35.0       35.0       35.0       35.0       35.0       35.0       35.0       35.0       35.0       35.0        0.0        0.0        0.0        0.0        0.0        0.0        0.0        0.0        0.0        0.0        0.0        0.0      0.0       2.2       0.5       4.3       8.2    391.63
    22     3  2011     8     1     410.3     0.0      0.0    0.0    0.0    0.0      0.0      0.0   -9.90      2.4      1.3     55      0.0      0.0   100      2.4     1.3      55      0.0    0.33     -9     -9     -9      0     -9     0.0     0.0      0    -9.00      0.0      0.0      0.0   100     0.0     0.000    -9.9    0.000    0.000      -9        0.00    0.000    0.000     410.3    270.3    0.33   104.4     153.8     114.0     107.3      83.9      82.8      69.4    0.000     0.000     0.000     0.000     0.000    0.33     0.00    0.00      0   -9.90   -9.00       25.3       35.0       35.0       35.0       35.0       35.0       35.0       35.0       35.0       35.0       35.0       35.0        0.0        0.0        0.0        0.0        0.0        0.0        0.0        0.0        0.0        0.0        0.0        0.0      0.0       2.2      -1.6       4.2       9.9    391.63
    23     3  2011     9     1     408.9     0.0      0.0    0.0    0.0    0.0      0.0      0.0   -9.90      3.1      1.4     46      0.0      0.0   100      3.1     1.4      46      3.2    0.34     -9     -9     -9      0     -9     0.0     0.0      0    -9.00      0.0      0.0      0.0   100     0.0     0.000    -9.9    0.000    0.000      -9        0.00    0.000    0.000     408.9    268.9    0.34   109.4     162.5     120.5     113.5      89.5      87.5      73.4    0.000     0.000     0.000     0.000     0.000    0.34     0.00    0.00      0   -9.90   -9.00       23.9       35.0       35.0       35.0       35.0       35.0       35.0       35.0       35.0       35.0       35.0       35.0        0.0        0.0        0.0        0.0        0.0        0.0        0.0        0.0        0.0        0.0        0.0        0.0      0.0       2.8       1.5       8.2      15.0    391.63
    24     3  2011    10     2     407.1     0.0      0.0    0.0    0.0    0.0      0.0      0.0   -9.90      3.8      1.5     38      0.3      0.3   100      4.1     1.8      43      6.1    0.36     -9      0      0      0      0     6.9     6.9     31     0.13      0.3      0.3      0.3   100    21.1     0.018    -9.9    0.000    0.000     100        0.00    0.000    0.000     407.1    267.1    0.36   113.7     170.7     126.6     117.1      95.4      90.7      77.1    0.000     0.000     0.000     0.000     0.000    0.36     0.00    0.00      0   -9.90   -9.00       22.1       35.0       35.0       35.0       35.0       35.0       35.0       35.0       35.0       35.0       35.0       35.0        0.0        0.0        0.0        0.0        0.0        0.0        0.0        0.0        0.0        0.0        0.0        0.0      0.0       3.9       3.8      11.1      18.3    391.63
    25     3  2011    11     2     405.2     0.0      0.0    0.0    0.0    0.0      0.0      0.0   -9.90      4.2      1.3     31      0.6      0.6   100      4.8     1.9      39      8.1    0.38     -9      0      0      0      0     8.0     8.0      9     0.14      0.6      0.6      0.6   100    21.1     0.046    -9.9    0.000    0.000     100        0.00    0.000    0.000     405.2    265.2    0.38   117.6     178.5     132.4     123.4     100.4      95.4      80.5    0.000     0.000     0.000     0.000     0.000    0.38     0.00    0.00      0   -9.90   -9.00       20.8       34.4       35.0       35.0       35.0       35.0       35.0       35.0       35.0       35.0       35.0       35.0        0.0        0.0        0.0        0.0        0.0        0.0        0.0        0.0        0.0        0.0        0.0        0.0      0.0       4.4       6.6      13.1      19.5    391.63
    26     3  2011    12     2     403.3     0.4      0.0    0.0    0.4    0.0      0.0      0.0   -9.90      3.7      1.7     46      0.6      0.6   100      4.4     2.4      54      8.7    0.39      3      0      0      0      0     9.3     9.3      6     0.16      0.6      0.6      0.6   100    21.1     0.079    -9.9    0.000    0.000     100        0.00    0.000    0.000     403.3    263.3    0.39   121.1     185.9     137.8     127.7     104.0      98.8      83.9    0.000     0.000     0.000     0.000     0.000    0.39     0.00    0.00      0   -9.90   -9.00       19.5       33.8       35.0       35.0       35.0       35.0       35.0       35.0       35.0       35.0       35.0       35.0        0.0        0.0        0.0        0.0        0.0        0.0        0.0        0.0        0.0        0.0        0.0        0.0      0.4       4.0       5.7      13.7      21.6    391.63
    27     3  2011    13     2     405.0     2.6      0.0    0.0    2.6    0.0      0.0      0.0   -9.90      0.9      0.9    100      0.0      0.0   100      0.9     0.9     100      0.0    0.41      0     -9      0      0      0     9.3     9.3    100    -9.00      0.0      0.0      0.0   100    21.1     0.079    -9.9    0.000    0.000     100        0.00    0.000    0.000     405.0    265.0    0.41   128.1     193.0     143.1     126.3     103.5      98.8      87.1    0.000     0.000     0.000     0.000     0.000    0.41     0.00    0.00      0   -9.90   -9.00       21.2       33.8       35.0       35.0       35.0       35.0       35.0       35.0       35.0       35.0       35.0       35.0        0.0        0.0        0.0        0.0        0.0        0.0        0.0        0.0        0.0        0.0        0.0        0.0      2.6       1.0       1.8       4.4       6.9    391.63
    28     3  2011    14     2     403.9     0.0      0.0    0.0    0.0    0.0      0.0      0.0   -9.90      1.1      1.1    100      0.0      0.0   100      1.1     1.1     100      1.1    0.42      0      0      0      0      0    10.7    10.7     97     0.19      0.0      0.0      0.0   100    21.1     0.080    -9.9    0.000    0.000     100        0.00    0.000    0.000     403.9    263.9    0.42   132.0     199.8     148.2     131.2     107.5     102.6      90.2    0.000     0.000     0.000     0.000     0.000    0.42     0.00    0.00      0   -9.90   -9.00       20.1       33.8       35.0       35.0       35.0       35.0       35.0       35.0       35.0       35.0       35.0       35.0        0.0        0.0        0.0        0.0        0.0        0.0        0.0        0.0        0.0        0.0        0.0        0.0      0.0       1.2       1.8       6.1      10.4    391.63
    29     3  2011    15     2     403.5     0.7      0.0    0.0    0.7    0.0      0.0      0.0   -9.90      1.4      1.0     68      0.1      0.1   100      1.5     1.1      70      3.9    0.44      0      0      0      0      0    12.4    12.4     71     0.22      0.1      0.1      0.1   100    21.1     0.093    -9.9    0.000    0.000      98        0.00    0.000    0.000     403.5    263.5    0.44   136.6     206.4     153.1     136.4     111.7     106.5      93.1    0.000     0.000     0.000     0.000     0.000    0.44     0.00    0.00      0   -9.90   -9.00       19.8       33.7       35.0       35.0       35.0       35.0       35.0       35.0       35.0       35.0       35.0       35.0        0.0        0.0        0.0        0.0        0.0        0.0        0.0        0.0        0.0        0.0        0.0        0.0      0.7       1.6       5.1       8.9      12.8    391.63
    30     3  2011    16     2     403.1     0.4      0.0    0.0    0.4    0.0      0.0      0.0   -9.90      1.4      0.7     54      0.1      0.1   100      1.4     0.8      56      3.1    0.45      0      0      0      0      0    14.3    14.3     83     0.25      0.1      0.1      0.1   100    21.1     0.102    -9.9    0.000    0.000      97        0.00    0.000    0.000     403.1    263.1    0.45   140.9     212.8     157.8     140.7     115.2     109.8      96.0    0.000     0.000     0.000     0.000     0.000    0.45     0.00    0.00      0   -9.90   -9.00       19.5       33.6       35.0       35.0       35.0       35.0       35.0       35.0       35.0       35.0       35.0       35.0        0.0        0.0        0.0        0.0        0.0        0.0        0.0        0.0        0.0        0.0        0.0        0.0      0.4       1.6       3.7       8.1      12.5    391.63
    31     3  2011    17     2     402.4     0.1      0.0    0.0    0.1    0.0      0.0      0.0   -9.90      1.5      0.6     37      0.2      0.2   100      1.8     0.8      44      4.4    0.46      0      0      0      0      0    16.6    16.6     62     0.28      0.2      0.2      0.2   100    21.1     0.125    -9.9    0.000    0.000      95        0.00    0.000    0.000     402.4    262.4    0.46   144.8     219.0     162.4     145.5     119.1     113.4      98.8    0.000     0.000     0.000     0.000     0.000    0.46     0.00    0.00      0   -9.90   -9.00       19.0       33.4       35.0       35.0       35.0       35.0       35.0       35.0       35.0       35.0       35.0       35.0        0.0        0.0        0.0        0.0        0.0        0.0        0.0        0.0        0.0        0.0        0.0        0.0      0.1       1.9       4.3       9.4      14.6    391.63
     1     4  2011    18     2     401.8     0.2      0.0    0.0    0.2    0.0      0.0      0.0   -9.90      1.4      0.6     40      0.2      0.2   100      1.6     0.8      48      4.4    0.48      0      0      0      0      0    19.2    19.2     63     0.32      0.2      0.2      0.2   100    21.1     0.151    -9.9    0.000    0.000      93        0.00    0.000    0.000     401.8    261.8    0.48   148.8     225.1     166.9     149.3     122.2     116.4     101.6    0.000     0.000     0.000     0.000     0.000    0.48     0.00    0.00      0   -9.90   -9.00       18.6       33.2       35.0       35.0       35.0       35.0       35.0       35.0       35.0       35.0       35.0       35.0        0.0        0.0        0.0        0.0        0.0        0.0        0.0        0.0        0.0        0.0        0.0        0.0      0.2       1.8       4.6       9.4      14.2    391.63
     2     4  2011    19     2     400.8     0.0      0.0    0.0    0.0    0.0      0.0      0.0   -9.90      1.8      0.5     28      0.6      0.6   100      2.3     1.0      45      5.8    0.49      1      0      0      0      0    22.2    22.2     37     0.37      0.6      0.6      0.6   100    21.1     0.200    -9.9    0.000    0.000      92        0.00    0.000    0.000     400.8    260.8    0.49   152.1     231.1     171.3     154.7     126.5     120.4     104.3    0.000     0.000     0.000     0.000     0.000    0.49     0.00    0.00      0   -9.90   -9.00       18.2       32.6       35.0       35.0       35.0       35.0       35.0       35.0       35.0       35.0       35.0       35.0        0.0        0.0        0.0        0.0        0.0        0.0        0.0        0.0        0.0        0.0        0.0        0.0      0.0       2.4       6.1      10.8      15.4    391.63
     3     4  2011    20     2     403.7     4.2      0.0    0.0    4.2    0.0      0.0      0.0   -9.90      1.3      1.3    100      0.0      0.0   100      1.3     1.3     100      1.8    0.50      0      0      0      0      0    25.7    25.7     94     0.42      0.0      0.0      0.0   100    21.1     0.205    -9.9    0.000    0.000      92        0.00    0.000    0.000     403.7    263.7    0.50   159.3     236.9     175.6     157.3     128.7     122.7     106.9    0.000     0.000     0.000     0.000     0.000    0.50     0.00    0.00      0   -9.90   -9.00       21.1       32.6       35.0       35.0       35.0       35.0       35.0       35.0       35.0       35.0       35.0       35.0        0.0        0.0        0.0        0.0        0.0        0.0        0.0        0.0        0.0        0.0        0.0        0.0      4.2       1.9       3.8       6.8       9.9    391.63
     4     4  2011    21     2     403.5     0.3      0.0    0.0    0.3    0.0      0.0      0.0   -9.90      0.5      0.4     76      0.0      0.0   100      0.5     0.4      78      2.4    0.51      0      0      0      0      0    29.7    29.7     89     0.47      0.0      0.0      0.0   100    21.1     0.216    -9.9    0.000    0.000      92        0.00    0.000    0.000     403.5    263.5    0.51   163.4     242.5     179.8     158.2     129.8     123.8     109.4    0.000     0.000     0.000     0.000     0.000    0.51     0.00    0.00      0   -9.90   -9.00       21.0       32.6       35.0       35.0       35.0       35.0       35.0       35.0       35.0       35.0       35.0       35.0        0.0        0.0        0.0        0.0        0.0        0.0        0.0        0.0        0.0        0.0        0.0        0.0      0.3       0.8       4.7       7.4      10.2    391.63
     5     4  2011    22     2     403.0     0.0      0.0    0.0    0.0    0.0      0.0      0.0   -9.90      0.9      0.3     38      0.2      0.2   100      1.1     0.5      48      3.2    0.53      0      0      0      0      0    34.4    34.4     81     0.53      0.2      0.2      0.2   100    21.1     0.237    -9.9    0.000    0.000      91        0.00    0.000    0.000     403.0    263.0    0.53   167.0     248.1     184.0     164.0     134.3     128.0     112.0    0.000     0.000     0.000     0.000     0.000    0.53     0.00    0.00      0   -9.90   -9.00       20.6       32.4       35.0       35.0       35.0       35.0       35.0       35.0       35.0       35.0       35.0       35.0        0.0        0.0        0.0        0.0        0.0        0.0        0.0        0.0        0.0        0.0        0.0        0.0      0.0       1.6       4.8       8.2      11.7    391.63
     6     4  2011    23     2     402.0     0.2      0.0    0.0    0.2    0.0      0.0      0.0   -9.90      1.1      0.5     48      0.7      0.7   100      1.8     1.2      68      5.3    0.54      0      0      0      0      0    39.8    39.8     45     0.60      0.7      0.7      0.7   100    21.1     0.306    -9.9    0.000    0.000      91        0.00    0.000    0.000     402.0    262.0    0.54   170.0     253.6     188.0     169.3     138.4     131.8     114.4    0.000     0.000     0.000     0.000     0.000    0.54     0.00    0.00      0   -9.90   -9.00       20.3       31.7       35.0       35.0       35.0       35.0       35.0       35.0       35.0       35.0       35.0       35.0        0.0        0.0        0.0        0.0        0.0        0.0        0.0        0.0        0.0        0.0        0.0        0.0      0.2       2.2       6.1      10.3      14.5    391.63
     7     4  2011    24     2     401.0     1.0      0.0    0.0    1.0    0.0      0.0      0.0   -9.90      0.9      0.9    100      1.1      1.1   100      2.0     2.0     100      6.5    0.55      0      0      0      0      0    46.0    46.0     24     0.67      1.1      1.1      1.1   100    21.1     0.412    -9.9    0.000    0.000      91        0.00    0.000    0.000     401.0    261.0    0.55   173.0     258.9     192.0     172.6     141.1     134.4     116.9    0.000     0.000     0.000     0.000     0.000    0.55     0.00    0.00      0   -9.90   -9.00       20.4       30.6       35.0       35.0       35.0       35.0       35.0       35.0       35.0       35.0       35.0       35.0        0.0        0.0        0.0        0.0        0.0        0.0        0.0        0.0        0.0        0.0        0.0        0.0      1.0       2.1       5.7      11.5      17.3    391.63
     8     4  2011    25     2     400.0     1.6      0.0    0.0    1.6    0.0      0.0      0.0   -9.90      1.3      1.3    100      1.3      1.3   100      2.6     2.6     100      5.1    0.56      1      0      0      0      0    52.2    52.2     49     0.73      1.3      1.3      1.3   100    21.1     0.491    -9.9    0.000    0.000      91        0.00    0.000    0.000     400.0    260.0    0.56   176.0     264.2     195.9     180.1     146.9     139.6     119.2    0.000     0.000     0.000     0.000     0.000    0.56     0.00    0.00      0   -9.90   -9.00       20.7       29.3       35.0       35.0       35.0       35.0       35.0       35.0       35.0       35.0       35.0       35.0        0.0        0.0        0.0        0.0        0.0        0.0        0.0        0.0        0.0        0.0        0.0        0.0      1.6       3.5       7.0      10.1      13.2    391.63
     9     4  2011    26     2     400.4     2.5      0.0    0.0    2.5    0.0      0.0      0.0   -9.90      1.1      1.1    100      1.0      1.0   100      2.2     2.2     100      4.3    0.57      1      0      0      0      0    57.5    57.5     64     0.78      1.0      1.0      1.0   100    21.1     0.551    -9.9    0.000    0.000      92        0.00    0.000    0.000     400.4    260.4    0.57   180.2     269.4     199.8     184.0     150.0     142.6     121.6    0.000     0.000     0.000     0.000     0.000    0.57     0.00    0.00      0   -9.90   -9.00       21.1       29.3       35.0       35.0       35.0       35.0       35.0       35.0       35.0       35.0       35.0       35.0        0.0        0.0        0.0        0.0        0.0        0.0        0.0        0.0        0.0        0.0        0.0        0.0      2.5       3.6       6.0       9.3      12.7    391.63
    10     4  2011    27     2     400.6     1.1      0.0    0.0    1.1    0.0      0.0      0.0   -9.90      0.8      0.8    100      0.1      0.1   100      0.9     0.9     100      1.7    0.58      0      0      0      0      0    62.1    62.1     95     0.83      0.1      0.1      0.1   100    21.1     0.561    -9.9    0.000    0.000      92        0.00    0.000    0.000     400.6    260.6    0.58   184.2     274.6     203.6     185.4     151.3     144.0     123.9    0.000     0.000     0.000     0.000     0.000    0.58     0.00    0.00      0   -9.90   -9.00       21.3       29.3       35.0       35.0       35.0       35.0       35.0       35.0       35.0       35.0       35.0       35.0        0.0        0.0        0.0        0.0        0.0        0.0        0.0        0.0        0.0        0.0        0.0        0.0      1.1       2.9       3.2       6.7      10.2    391.63
    11     4  2011    28     2     400.7     0.9      0.0    0.0    0.9    0.0      0.0      0.0   -9.90      0.6      0.6    100      0.1      0.1   100      0.7     0.7     100      1.5    0.59      0      0      0      0      0    66.1    66.1     96     0.86      0.1      0.1      0.1   100    21.1     0.569    -9.9    0.000    0.000      92        0.00    0.000    0.000     400.7    260.7    0.59   188.1     279.6     207.3     188.2     153.7     146.3     126.2    0.000     0.000     0.000     0.000     0.000    0.59     0.00    0.00      0   -9.90   -9.00       21.4       29.3       35.0       35.0       35.0       35.0       35.0       35.0       35.0       35.0       35.0       35.0        0.0        0.0        0.0        0.0        0.0        0.0        0.0        0.0        0.0        0.0        0.0        0.0      0.9       2.7       3.2       6.5       9.8    391.63
    12     4  2011    29     2     401.4     1.1      0.0    0.0    1.1    0.0      0.0      0.0   -9.90      0.4      0.4    100      0.0      0.0   100      0.4     0.4     100      1.1    0.60      0      0      0      0      0    69.6    69.6     97     0.89      0.0      0.0      0.0   100    21.1     0.574    -9.9    0.000    0.000      92        0.00    0.000    0.000     401.4    261.4    0.60   192.4     284.6     211.0     188.7     154.5     147.2     128.4    0.000     0.000     0.000     0.000     0.000    0.60     0.00    0.00      0   -9.90   -9.00       22.1       29.3       35.0       35.0       35.0       35.0       35.0       35.0       35.0       35.0       35.0       35.0        0.0        0.0        0.0        0.0        0.0        0.0        0.0        0.0        0.0        0.0        0.0        0.0      1.1       1.8       1.1       6.1      11.2    391.63
    13     4  2011    30     2     411.1    10.5      0.0    0.0   10.5    0.0      0.0      0.0   -9.90      0.3      0.3    100      0.6      0.6   100      0.8     0.8     100      4.6    0.61      0      0      0      0      0    72.6    72.6     59     0.91      0.6      0.6      0.6   100    21.1     0.654    -9.9    0.000    0.000      92        0.00    0.000    0.000     411.1    271.1    0.61   205.8     289.5     214.7     191.0     156.5     149.2     130.6    0.000     0.000     0.000     0.000     0.000    0.61     0.00    0.00      0   -9.90   -9.00       31.8       29.3       35.0       35.0       35.0       35.0       35.0       35.0       35.0       35.0       35.0       35.0        0.0        0.0        0.0        0.0        0.0        0.0        0.0        0.0        0.0        0.0        0.0        0.0     10.5       1.5       5.2       9.6      14.0    391.63
    14     4  2011    31     2     429.7    20.5      0.0    0.0   18.7    1.8      0.0      0.0   -9.90      0.1      0.1    100      0.0      0.0   100      0.1     0.1     100      0.2    0.62      0      0      0      0      0    75.2    75.2    100    -9.00      0.0      0.0      0.0   100    21.1     0.655    -9.9    0.000    0.000      92        0.00    0.000    0.000     429.7    289.7    0.62   227.9     294.3     218.3     191.4     157.0     149.9     132.8    0.000     0.000     0.000     0.000     0.000    0.62     0.00    0.00      0   -9.90   -9.00       47.1       32.6       35.0       35.0       35.0       35.0       35.0       35.0       35.0       35.0       35.0       35.0        0.0        0.0        0.0        0.0        0.0        0.0        0.0        0.0        0.0        0.0        0.0        0.0     20.5       0.6       3.2       5.2       7.3    391.63
    15     4  2011    32     2     438.3     9.6      0.0    0.0    8.9    0.7      0.0      0.0   -9.90      0.1      0.1    100      0.0      0.0   100      0.1     0.1     100      1.4    0.63      0      0      0      0      0    77.4    77.4     96     0.95      0.0      0.0      0.0   100    21.1     0.662    -9.9    0.000    0.000      92        0.00    0.000    0.000     438.3    298.3    0.63   240.1     299.1     221.8     195.1     160.1     152.8     135.0    0.000     0.000     0.000     0.000     0.000    0.63     0.00    0.00      0   -9.90   -9.00       47.1       40.0       35.7       35.2       35.1       35.1       35.0       35.0       35.0       35.0       35.0       35.0        0.0        0.0        0.0        0.0        0.0        0.0        0.0        0.0        0.0        0.0        0.0        0.0      9.6       0.8       3.9       6.4       8.8    391.63
    16     4  2011    33     2     437.3     0.0      0.0    0.0    0.0    0.0      0.4      0.0   -9.90      0.3      0.3    100      0.4      0.4   100      0.7     0.7     100      2.9    0.64      0      0      0      0      0    79.3    79.3     85     0.97      0.4      0.4      0.4   100    21.1     0.694    -9.9    0.000    0.000      93        0.00    0.000    0.000     437.3    297.0    0.64   242.0     303.9     225.3     204.2     166.8     158.8     137.1    0.000     0.000     0.000     0.000     0.000    0.64     0.00    0.00      0   -9.90   -9.00       40.9       40.8       38.0       36.1       35.5       35.3       35.2       35.1       35.1       35.1       35.1       35.0        0.0        0.0        0.0        0.0        0.0        0.0        0.0        0.0        0.0        0.0        0.0        0.0      0.0       2.6       3.8       7.9      12.1    391.63
    17     4  2011    34     2     434.0     0.0      0.0    0.0    0.0    0.0      1.2      0.0   -9.90      0.4      0.4    100      1.6      1.6   100      2.0     2.0     100      5.1    0.65      0      0      0      0      0    81.0    81.0     48     0.98      1.6      1.6      1.6   100    21.1     0.801    -9.9    0.000    0.000      93        0.00    0.000    0.000     434.0    293.1    0.65   241.2     308.5     228.8     209.3     170.8     162.4     139.2    0.000     0.000     0.000     0.000     0.000    0.65     0.00    0.00      0   -9.90   -9.00       36.3       38.3       38.3       37.1       36.3       35.8       35.6       35.4       35.3       35.2       35.2       35.2        0.0        0.0        0.0        0.0        0.0        0.0        0.0        0.0        0.0        0.0        0.0        0.0      0.0       3.2       2.4      10.1      17.9    391.63
    18     4  2011    35     2     428.9     0.0      0.0    0.0    0.0    0.0      2.4      0.0   -9.90      0.3      0.3    100      2.4      2.4   100      2.7     2.7     100      6.4    0.66      0      0      0      0      0    82.5    82.5     27     0.99      2.4      2.4      2.4   100    21.1     0.955    -9.9    0.000    0.000      94        0.00    0.000    0.000     428.9    287.2    0.66   238.5     313.2     232.2     212.8     173.6     165.1     141.3    0.000     0.000     0.000     0.000     0.000    0.66     0.00    0.00      0   -9.90   -9.00       33.0       36.9       36.9       36.5       36.3       36.1       35.8       35.7       35.5       35.4       35.4       35.3        0.0        0.0        0.0        0.0        0.0        0.0        0.0        0.0        0.0        0.0        0.0        0.0      0.0       3.3       4.9      11.4      17.8    391.63
    19     4  2011    36     2     421.4     0.0      0.0    0.0    0.0    0.0      3.1      0.0   -9.90      0.4      0.4    100      4.0      4.0   100      4.4     4.4     100      9.6    0.67      0      0      0      0      0    83.7    83.7      3     1.00      4.0      4.0      4.0   100    21.1     1.160    -9.9    0.000    0.000      95        0.00    0.000    0.000     421.4    279.5    0.67   234.4     317.8     235.6     218.7     178.1     169.2     143.4    0.000     0.000     0.000     0.000     0.000    0.67     0.00    0.00      0   -9.90   -9.00       28.7       36.1       36.1       35.9       35.8       35.8       35.7       35.6       35.6       35.5       35.4       35.4        0.0        0.0        0.0        0.0        0.0        0.0        0.0        0.0        0.0        0.0        0.0        0.0      0.0       4.1       9.0      14.6      20.2    391.63
    20     4  2011    37     2     415.3     0.0      0.0    0.0    0.0    0.0      2.8      0.0   -9.90      0.4      0.4    100      2.9      2.9   100      3.4     3.4     100      5.6    0.68      0      0      0      0      0    84.8    84.8     40     1.01      2.9      2.9      2.9   100    21.1     1.287    -9.9    0.000    0.000      95        0.00    0.000    0.000     415.3    273.8    0.68   232.3     322.3     239.0     224.6     182.6     173.3     145.4    0.000     0.000     0.000     0.000     0.000    0.68     0.00    0.00      0   -9.90   -9.00       25.3       35.6       35.6       35.5       35.4       35.4       35.4       35.4       35.4       35.4       35.4       35.3        0.0        0.0        0.0        0.0        0.0        0.0        0.0        0.0        0.0        0.0        0.0        0.0      0.0       4.9       4.6      10.6      16.5    391.63
    21     4  2011    38     2     410.0     0.0      0.0    0.0    0.0    0.0      2.0      0.0   -9.90      0.3      0.3    100      3.0      3.0   100      3.3     3.3     100      6.0    0.69      0      0      0      0      0    85.7    85.7     32     1.01      3.0      3.0      3.0   100    21.1     1.432    -9.9    0.000    0.000      96        0.00    0.000    0.000     410.0    269.0    0.69   231.1     326.8     242.3     225.6     183.6     174.4     147.5    0.000     0.000     0.000     0.000     0.000    0.69     0.00    0.00      0   -9.90   -9.00       22.0       35.4       35.4       35.3       35.3       35.3       35.3       35.3       35.2       35.2       35.2       35.2        0.0        0.0        0.0        0.0        0.0        0.0        0.0        0.0        0.0        0.0        0.0        0.0      0.0       4.3       3.0      11.0      19.0    391.63
    22     4  2011    39     2     407.0     0.4      0.0    0.0    0.4    0.0      1.2      0.0   -9.90      0.3      0.3    100      1.9      1.9   100      2.1     2.1     100      5.2    0.70      0      0      0      0      0    86.5    86.5     47     1.02      1.9      1.9      1.9   100    21.1     1.546    -9.9    0.000    0.000      96        0.00    0.000    0.000     407.0    266.4    0.70   231.9     331.2     245.6     225.8     184.1     175.0     149.5    0.000     0.000     0.000     0.000     0.000    0.70     0.00    0.00      0   -9.90   -9.00       20.3       35.2       35.2       35.2       35.1       35.1       35.1       35.1       35.1       35.1       35.1       35.1        0.0        0.0        0.0        0.0        0.0        0.0        0.0        0.0        0.0        0.0        0.0        0.0      0.4       3.5       5.3      10.2      15.1    391.63
    23     4  2011    40     2     403.9     0.0      0.0    0.0    0.0    0.0      0.7      0.0   -9.90      0.3      0.2     74      2.1      2.1   100      2.4     2.3      97      5.2    0.71      0      0      0      0      0    87.2    87.2     47     1.03      2.1      2.1      2.1   100    21.1     1.661    -9.9    0.000    0.000      96        0.00    0.000    0.000     403.9    263.6    0.71   232.4     335.6     248.9     230.2     187.6     178.2     151.5    0.000     0.000     0.000     0.000     0.000    0.71     0.00    0.00      0   -9.90   -9.00       20.1       33.0       35.1       35.1       35.1       35.1       35.1       35.1       35.1       35.1       35.1       35.1        0.0        0.0        0.0        0.0        0.0        0.0        0.0        0.0        0.0        0.0        0.0        0.0      0.0       3.9       2.5      10.2      17.9    391.63
    24     4  2011    41     2     400.1     0.0      0.0    0.0    0.0    0.0      0.4      0.0   -9.90      0.3      0.1     35      3.3      3.3   100      3.6     3.4      95      6.8    0.72      0      0      0      0      0    87.8    87.8     21     1.03      3.3      3.3      3.3   100    21.1     1.833    -9.9    0.000    0.000      97        0.00    0.000    0.000     400.1    260.0    0.72   232.0     340.0     252.1     234.0     190.5     181.0     153.4    0.000     0.000     0.000     0.000     0.000    0.72     0.00    0.00      0   -9.90   -9.00       20.0       29.7       35.1       35.1       35.0       35.0       35.0       35.0       35.0       35.0       35.0       35.0        0.0        0.0        0.0        0.0        0.0        0.0        0.0        0.0        0.0        0.0        0.0        0.0      0.0       4.1       3.8      11.8      19.7    391.63
    25     4  2011    42     2     396.3     0.0      0.0    0.0    0.0    0.0      0.2      0.0   -9.90      0.2      0.1     27      3.5      3.5   100      3.8     3.6      95      7.1    0.73      1      0      0      0      0    88.3    88.3     17     1.03      3.5      3.5      3.5   100    21.1     2.014    -9.9    0.000    0.000      97        0.00    0.000    0.000     396.3    256.2    0.73   231.5     344.3     255.3     236.9     193.0     183.3     155.4    0.000     0.000     0.000     0.000     0.000    0.73     0.00    0.00      0   -9.90   -9.00       19.9       26.1       35.0       35.0       35.0       35.0       35.0       35.0       35.0       35.0       35.0       35.0        0.0        0.0        0.0        0.0        0.0        0.0        0.0        0.0        0.0        0.0        0.0        0.0      0.0       4.1       3.5      12.1      20.7    391.63
    26     4  2011    43     2     391.2     0.0      0.0    0.0    0.0    0.0      0.1      0.0   -9.90      0.3      0.1     20      5.0      5.0   100      5.2     5.0      96     10.2    0.74      3      0      0      0      0    88.7    88.7      0     1.04      5.0      5.0      5.0   100    21.1     2.233    -9.9    0.000    0.000      97        0.00    0.000    0.000     391.2    251.1    0.74   229.6     348.6     258.5     242.5     197.2     187.2     157.3    0.000     0.000     0.000     0.000     0.000    0.74     0.00    0.00      0   -9.90   -9.00       19.9       21.8       34.4       35.0       35.0       35.0       35.0       35.0       35.0       35.0       35.0       35.0        0.0        0.0        0.0        0.0        0.0        0.0        0.0        0.0        0.0        0.0        0.0        0.0      0.0       4.8       7.2      15.2      23.1    391.63
    27     4  2011    44     2     385.9     0.0      0.0    0.0    0.0    0.0      0.1      0.0   -9.90      0.3      0.0     14      5.2      5.2   100      5.5     5.2      96     10.9    0.75      6      0      0      0      0    89.1    89.1      0     1.04      5.2      5.2      5.2   100    21.1     2.452    -9.9    0.000    0.000      97        0.00    0.000    0.000     385.9    245.9    0.75   227.5     352.8     261.6     246.3     200.2     189.9     159.2    0.000     0.000     0.000     0.000     0.000    0.75     0.00    0.00      0   -9.90   -9.00       19.8       20.7       30.6       34.7       35.0       35.0       35.0       35.0       35.0       35.0       35.0       35.0        0.0        0.0        0.0        0.0        0.0        0.0        0.0        0.0        0.0        0.0        0.0        0.0      0.0       5.0       8.6      15.9      23.3    391.63
    28     4  2011    45     2     382.1     0.1      0.0    0.0    0.1    0.0      0.0      0.0   -9.90      0.2      0.1     58      3.8      3.8   100      3.9     3.9      98      9.7    0.76      6      0      0      0      0    89.4    89.4      3     1.04      3.8      3.8      3.8   100    21.1     2.666    -9.9    0.000    0.000      97        0.00    0.000    0.000     382.1    242.1    0.76   226.8     357.0     264.8     244.2     199.0     189.1     161.1    0.000     0.000     0.000     0.000     0.000    0.76     0.00    0.00      0   -9.90   -9.00       19.8       20.7       26.8       34.7       35.0       35.0       35.0       35.0       35.0       35.0       35.0       35.0        0.0        0.0        0.0        0.0        0.0        0.0        0.0        0.0        0.0        0.0        0.0        0.0      0.1       3.7       8.8      14.7      20.6    391.63
    29     4  2011    46     2     377.4     0.6      0.0    0.0    0.6    0.0      0.0      0.0   -9.90      0.2      0.2    100      5.0      5.0   100      5.2     5.2     100     11.6    0.77     12      0      0      0      0    89.6    89.6      0     1.04      5.0      5.0      5.0   100    21.1     2.887    -9.9    0.000    0.000      98        0.00    0.000    0.000     377.4    237.4    0.77   225.3     361.2     267.8     251.3     204.4     194.0     163.0    0.000     0.000     0.000     0.000     0.000    0.77     0.00    0.00      0   -9.90   -9.00       20.2       20.7       23.0       33.6       35.0       35.0       35.0       35.0       35.0       35.0       35.0       35.0        0.0        0.0        0.0        0.0        0.0        0.0        0.0        0.0        0.0        0.0        0.0        0.0      0.6       4.8      10.8      16.6      22.4    391.63
    30     4  2011    47     2     373.1     0.1      0.0    0.0    0.1    0.0      0.0      0.0   -9.90      0.2      0.1     57      4.3      4.3   100      4.5     4.4      98     11.3    0.77     15      0      0      0      0    89.9    89.9      0     1.04      4.3      4.3      4.3   100    21.1     3.107    -9.9    0.000    0.000      98        0.00    0.000    0.000     373.1    233.1    0.77   224.0     365.4     270.9     251.4     204.8     194.5     164.9    0.000     0.000     0.000     0.000     0.000    0.77     0.00    0.00      0   -9.90   -9.00       20.1       20.7       20.5       31.8       35.0       35.0       35.0       35.0       35.0       35.0       35.0       35.0        0.0        0.0        0.0        0.0        0.0        0.0        0.0        0.0        0.0        0.0        0.0        0.0      0.1       4.1      10.2      16.3      22.4    391.63
     1     5  2011    48     2     368.7     0.0      0.0    0.0    0.0    0.0      0.0      0.0   -9.90      0.2      0.0     13      4.4      4.4   100      4.6     4.4      96     10.3    0.78     20      0      0      0      0    90.0    90.0      0     1.05      4.4      4.4      4.4   100    21.1     3.328    -9.9    0.000    0.000      98        0.00    0.000    0.000     368.7    228.7    0.78   222.7     369.5     274.0     254.7     207.4     197.0     166.7    0.000     0.000     0.000     0.000     0.000    0.78     0.00    0.00      0   -9.90   -9.00       20.1       20.7       20.5       28.6       33.9       35.0       35.0       35.0       35.0       35.0       35.0       35.0        0.0        0.0        0.0        0.0        0.0        0.0        0.0        0.0        0.0        0.0        0.0        0.0      0.0       4.2       9.2      15.3      21.4    391.63
     2     5  2011    49     3     371.9     4.9      0.0    0.0    4.9    0.0      0.0      0.0   -9.90      0.1      0.1    100      1.6      1.6   100      1.7     1.7     100      8.2    0.79      9      0      0      0      0    90.2    90.2      8     1.05      1.6      1.6      1.6   100    21.1     3.531    -9.9    0.000    0.000      98        0.00    0.000    0.000     371.9    231.9    0.79   228.9     373.5     277.0     247.3     202.5     193.0     168.6    0.000     0.000     0.000     0.000     0.000    0.79     0.00    0.00      0   -9.90   -9.00       23.3       20.7       20.5       28.6       33.9       35.0       35.0       35.0       35.0       35.0       35.0       35.0        0.0        0.0        0.0        0.0        0.0        0.0        0.0        0.0        0.0        0.0        0.0        0.0      4.9       1.7       9.7      13.2      16.6    391.63
     3     5  2011    50     3     369.4     0.0      0.0    0.0    0.0    0.0      0.0      0.0   -9.90      0.1      0.1    100      2.4      2.4   100      2.5     2.5     100      7.8    0.80     -9      0      0      0      0    91.1    91.1     11     1.05      2.4      2.4      2.4   100    21.1     3.730    -9.9    0.000    0.000      98        0.00    0.000    0.000     369.4    229.4    0.80   229.4     377.6     280.0     253.3     207.0     197.1     170.4    0.000     0.000     0.000     0.000     0.000    0.80     0.00    0.00      0   -9.90   -9.00       20.9       20.7       20.5       28.6       33.9       35.0       35.0       35.0       35.0       35.0       35.0       35.0        0.0        0.0        0.0        0.0        0.0        0.0        0.0        0.0        0.0        0.0        0.0        0.0      0.0       2.5       8.3      12.8      17.3    391.63
     4     5  2011    51     3     374.3     7.0      0.0    0.0    7.0    0.0      0.0      0.0   -9.90      0.1      0.1    100      2.0      2.0   100      2.1     2.1     100      7.4    0.80     -9      0      0      0      0    91.2    91.2     14     1.05      2.0      2.0      2.0   100    19.6     3.907     1.6    0.061    0.072      98        0.06    0.000    0.000     374.3    234.3    0.80   234.3     377.6     280.0     252.1     206.1     196.3     170.4    0.000     0.000     0.000     0.000     0.000    0.80     0.00    0.00      0   -9.90   -9.00       25.8       20.7       20.5       28.6       33.9       35.0       35.0       35.0       35.0       35.0       35.0       35.0        0.0        0.0        0.0        0.0        0.0        0.0        0.0        0.0        0.0        0.0        0.0        0.0      7.0       2.2       7.5      12.4      17.3    391.63
     5     5  2011    52     3     371.4     0.0      0.0    0.0    0.0    0.0      0.0      0.0   -9.90      0.1      0.1    100      2.7      2.7   100      2.9     2.9     100      5.9    0.80     -9      0      0      0      0    91.3    91.3     33     1.05      2.7      2.7      2.7   100    18.8     4.040     1.9    0.078    0.092      98        0.08    0.000    0.000     371.4    231.4    0.80   231.4     377.6     280.0     259.0     211.0     200.5     170.4    0.000     0.000     0.000     0.000     0.000    0.80     0.00    0.00      0   -9.90   -9.00       22.9       20.7       20.5       28.6       33.9       35.0       35.0       35.0       35.0       35.0       35.0       35.0        0.0        0.0        0.0        0.0        0.0        0.0        0.0        0.0        0.0        0.0        0.0        0.0      0.0       3.9       6.8      10.9      15.1    391.63
     6     5  2011    53     3     368.7     0.0      0.0    0.0    0.0    0.0      0.0      0.0   -9.90      0.2      0.2    100      2.5      2.5   100      2.7     2.7     100      5.2    0.80     -9      0      0      0      0    91.4    91.4     46     1.05      2.5      2.5      2.5   100    18.1     4.142     2.4    0.100    0.117      98        0.09    0.000    0.000     368.7    228.7    0.80   228.7     377.6     280.0     261.5     212.8     202.0     170.4    0.000     0.000     0.000     0.000     0.000    0.80     0.00    0.00      0   -9.90   -9.00       20.2       20.7       20.5       28.6       33.9       35.0       35.0       35.0       35.0       35.0       35.0       35.0        0.0        0.0        0.0        0.0        0.0        0.0        0.0        0.0        0.0        0.0        0.0        0.0      0.0       4.5       5.4      10.2      15.1    391.63
     7     5  2011    54     3     369.7     3.3      0.0    0.0    3.3    0.0      0.0      0.0   -9.90      0.1      0.1    100      2.2      2.2   100      2.3     2.3     100      5.8    0.80     -9      0      0      0      0    91.5    91.5     37     1.05      2.2      2.2      2.2   100    17.3     4.257     3.0    0.127    0.149      98        0.12    0.000    0.000     369.7    229.7    0.80   229.7     377.6     280.0     256.6     209.3     199.0     170.4    0.000     0.000     0.000     0.000     0.000    0.80     0.00    0.00      0   -9.90   -9.00       21.1       20.7       20.5       28.6       33.9       35.0       35.0       35.0       35.0       35.0       35.0       35.0        0.0        0.0        0.0        0.0        0.0        0.0        0.0        0.0        0.0        0.0        0.0        0.0      3.3       3.3       5.1      10.8      16.4    391.63
     8     5  2011    55     3     372.5     5.4      0.0    0.0    5.4    0.0      0.0      0.0   -9.90      0.1      0.1    100      2.5      2.5   100      2.6     2.6     100      6.5    0.80     -9      0      0      0      0    91.6    91.6     25     1.05      2.5      2.5      2.5   100    16.5     4.386     3.7    0.161    0.190      98        0.14    0.000    0.000     372.5    232.5    0.80   232.5     377.6     280.0     256.2     209.0     198.8     170.4    0.000     0.000     0.000     0.000     0.000    0.80     0.00    0.00      0   -9.90   -9.00       23.9       20.7       20.5       28.6       33.9       35.0       35.0       35.0       35.0       35.0       35.0       35.0        0.0        0.0        0.0        0.0        0.0        0.0        0.0        0.0        0.0        0.0        0.0        0.0      5.4       3.2       6.8      11.5      16.1    391.63
     9     5  2011    56     3     371.0     2.4      0.0    0.0    2.4    0.0      0.0      0.0   -9.90      0.1      0.1    100      3.8      3.8   100      3.9     3.9     100      9.8    0.80     -9      0      0      0      0    91.6    91.6      2     1.04      3.8      3.8      3.8   100    15.7     4.546     4.5    0.206    0.242      98        0.18    0.000    0.000     371.0    231.0    0.80   231.0     377.6     280.0     258.2     210.5     200.0     170.4    0.000     0.000     0.000     0.000     0.000    0.80     0.00    0.00      0   -9.90   -9.00       22.4       20.7       20.5       28.6       33.9       35.0       35.0       35.0       35.0       35.0       35.0       35.0        0.0        0.0        0.0        0.0        0.0        0.0        0.0        0.0        0.0        0.0        0.0        0.0      2.4       3.7       9.4      14.8      20.1    391.63
    10     5  2011    57     3     371.2     4.1      0.0    0.0    4.1    0.0      0.0      0.0   -9.90      0.1      0.1    100      3.8      3.8   100      3.9     3.9     100     10.0    0.80     -9      0      0      0      0    91.7    91.7      0     1.04      3.8      3.8      3.8   100    14.9     4.702     5.6    0.261    0.307      98        0.22    0.000    0.000     371.2    231.2    0.80   231.2     377.6     280.0     257.8     210.2     199.8     170.4    0.000     0.000     0.000     0.000     0.000    0.80     0.00    0.00      0   -9.90   -9.00       22.6       20.7       20.5       28.6       33.9       35.0       35.0       35.0       35.0       35.0       35.0       35.0        0.0        0.0        0.0        0.0        0.0        0.0        0.0        0.0        0.0        0.0        0.0        0.0      4.1       3.6       9.6      15.0      20.4    391.63
    11     5  2011    58     3     378.4    10.0      0.0    0.0   10.0    0.0      0.0      0.0   -9.90      0.1      0.1    100      2.7      2.7   100      2.8     2.8     100      8.1    0.80     -9      0      0      0      0    91.7    91.7      9     1.04      2.7      2.7      2.7   100    14.2     4.837     6.8    0.328    0.386      98        0.27    0.000    0.000     378.4    238.4    0.80   238.4     377.6     280.0     254.5     207.8     197.8     170.4    0.000     0.000     0.000     0.000     0.000    0.80     0.00    0.00      0   -9.90   -9.00       29.9       20.7       20.5       28.6       33.9       35.0       35.0       35.0       35.0       35.0       35.0       35.0        0.0        0.0        0.0        0.0        0.0        0.0        0.0        0.0        0.0        0.0        0.0        0.0     10.0       2.8       8.6      13.1      17.6    391.63
    12     5  2011    59     3     375.0     0.0      0.0    0.0    0.0    0.0      0.0      0.0   -9.90      0.1      0.1    100      3.3      3.3   100      3.4     3.4     100     10.0    0.80     -9      0      0      0      0    91.8    91.8      0     1.04      3.3      3.3      3.3   100    13.4     4.976     8.2    0.409    0.481      98        0.33    0.000    0.000     375.0    235.0    0.80   235.0     377.6     280.0     256.2     209.0     198.8     170.4    0.000     0.000     0.000     0.000     0.000    0.80     0.00    0.00      0   -9.90   -9.00       26.5       20.7       20.5       28.6       33.9       35.0       35.0       35.0       35.0       35.0       35.0       35.0        0.0        0.0        0.0        0.0        0.0        0.0        0.0        0.0        0.0        0.0        0.0        0.0      0.0       3.2       9.6      15.0      20.4    391.63
    13     5  2011    60     3     370.2     0.0      0.0    0.0    0.0    0.0      0.0      0.0   -9.90      0.2      0.2    100      4.7      4.7   100      4.8     4.8     100     12.1    0.80     -9      0      0      0      0    91.8    91.8      0     1.03      4.7      4.7      4.7   100    12.7     5.107     9.9    0.506    0.595      98        0.39    0.000    0.000     370.2    230.2    0.80   230.2     377.6     280.0     261.5     212.8     202.0     170.4    0.000     0.000     0.000     0.000     0.000    0.80     0.00    0.00      0   -9.90   -9.00       21.6       20.7       20.5       28.6       33.9       35.0       35.0       35.0       35.0       35.0       35.0       35.0        0.0        0.0        0.0        0.0        0.0        0.0        0.0        0.0        0.0        0.0        0.0        0.0      0.0       4.5      10.0      17.1      24.3    391.63
    14     5  2011    61     3     365.0     0.0      0.0    0.0    0.0    0.0      0.0      0.0   -9.90      0.2      0.2    100      5.1      5.1   100      5.2     5.2     100     12.5    0.80     -9      0      0      0      0    91.8    91.8      0     1.03      5.1      5.1      5.1   100    12.7     5.238    11.7    0.614    0.722      98        0.45    0.000    0.000     365.0    225.0    0.80   225.0     377.6     280.0     263.1     213.9     203.0     170.4    0.000     0.000     0.000     0.000     0.000    0.80     0.00    0.00      0   -9.90   -9.00       21.0       20.7       20.5       25.3       32.6       35.0       35.0       35.0       35.0       35.0       35.0       35.0        0.0        0.0        0.0        0.0        0.0        0.0        0.0        0.0        0.0        0.0        0.0        0.0      0.0       4.9      12.2      17.5      22.8    391.63
    15     5  2011    62     3     360.3     0.0      0.0    0.0    0.0    0.0      0.0      0.0   -9.90      0.2      0.2    100      4.5      4.5   100      4.7     4.7     100     13.6    0.80     -9      0      0      0      0    91.8    91.8      0     1.03      4.5      4.5      4.5   100    12.7     5.368    13.5    0.726    0.854      98        0.52    0.000    0.000     360.3    220.3    0.80   220.3     377.6     280.0     261.1     212.5     201.8     170.4    0.000     0.000     0.000     0.000     0.000    0.80     0.00    0.00      0   -9.90   -9.00       20.8       20.7       20.5       22.2       31.2       35.0       35.0       35.0       35.0       35.0       35.0       35.0        0.0        0.0        0.0        0.0        0.0        0.0        0.0        0.0        0.0        0.0        0.0        0.0      0.0       4.4      11.9      18.6      25.4    391.63
    16     5  2011    63     3     355.2     0.0      0.0    0.0    0.0    0.0      0.0      0.0   -9.90      0.2      0.2    100      4.9      4.9   100      5.1     5.1     100     14.1    0.80     -9      0      0      0      0    91.9    91.9      0     1.03      4.9      4.9      4.9   100    12.7     5.498    15.3    0.843    0.992      98        0.58    0.000    0.000     355.2    215.2    0.80   215.2     377.6     280.0     262.7     213.7     202.8     170.4    0.000     0.000     0.000     0.000     0.000    0.80     0.00    0.00      0   -9.90   -9.00       20.7       20.7       20.5       20.8       28.5       34.1       35.0       35.0       35.0       35.0       35.0       35.0        0.0        0.0        0.0        0.0        0.0        0.0        0.0        0.0        0.0        0.0        0.0        0.0      0.0       4.8      12.4      19.1      25.8    391.63
    17     5  2011    64     3     351.5     0.0      0.0    0.0    0.0    0.0      0.0      0.0   -9.90      0.1      0.1    100      3.6      3.6   100      3.7     3.7     100     12.5    0.80     -9      0      0      0      0    91.9    91.9      0     1.02      3.6      3.6      3.6   100    12.7     5.628    17.1    0.964    1.135      98        0.65    0.000    0.000     351.5    211.5    0.80   211.5     377.6     280.0     257.4     209.9     199.5     170.4    0.000     0.000     0.000     0.000     0.000    0.80     0.00    0.00      0   -9.90   -9.00       20.6       20.7       20.5       20.8       25.8       33.2       35.0       35.0       35.0       35.0       35.0       35.0        0.0        0.0        0.0        0.0        0.0        0.0        0.0        0.0        0.0        0.0        0.0        0.0      0.0       3.5      11.9      17.5      23.1    391.63
    18     5  2011    65     3     346.9     0.0      0.0    0.0    0.0    0.0      0.0      0.0   -9.90      0.2      0.2    100      4.6      4.4    97      4.8     4.6      97     13.3    0.80     -9      3      0      0      0    91.9    91.9      0     1.02      4.6      4.4      4.4    97    12.7     5.753    18.9    1.089    1.281      98        0.71    0.000    0.000     346.9    206.9    0.80   206.9     377.6     280.0     261.5     212.8     202.0     170.4    0.000     0.000     0.000     0.000     0.000    0.80     0.00    0.00      0   -9.90   -9.00       20.4       20.7       20.5       20.8       23.1       31.4       35.0       35.0       35.0       35.0       35.0       35.0        0.0        0.0        0.0        0.0        0.0        0.0        0.0        0.0        0.0        0.0        0.0        0.0      0.0       4.5      10.8      18.3      25.8    391.63
    19     5  2011    66     3     342.5     0.0      0.0    0.0    0.0    0.0      0.0      0.0   -9.90      0.2      0.2    100      5.1      4.2    83      5.3     4.4      83     14.6    0.80     -9     17      0      0      0    91.9    91.9      0     1.02      5.1      4.2      4.2    83    12.7     5.860    20.7    1.213    1.427      98        0.77    0.000    0.000     342.5    202.5    0.80   202.5     377.6     280.0     263.6     214.2     203.3     170.4    0.000     0.000     0.000     0.000     0.000    0.80     0.00    0.00      0   -9.90   -9.00       20.2       20.7       20.5       20.8       21.3       29.3       34.7       35.0       35.0       35.0       35.0       35.0        0.0        0.0        0.0        0.0        0.0        0.0        0.0        0.0        0.0        0.0        0.0        0.0      0.0       5.0      12.3      19.6      26.9    391.63
    20     5  2011    67     4     344.7     6.9      0.0    0.0    6.9    0.0      0.0      0.0   -9.90      0.2      0.2    100      4.6      4.6   100      4.7     4.7     100     15.1    0.80     -9      0      0      0      0    91.9    91.9      0     1.02      4.6      4.6      4.6   100    12.7     5.989    22.5    1.347    1.584      98        0.83    0.000    0.000     344.7    204.7    0.80   204.7     377.6     280.0     261.5     212.8     202.0     170.4    0.000     0.000     0.000     0.000     0.000    0.80     0.00    0.00      0   -9.90   -9.00       22.4       20.7       20.5       20.8       21.3       29.3       34.7       35.0       35.0       35.0       35.0       35.0        0.0        0.0        0.0        0.0        0.0        0.0        0.0        0.0        0.0        0.0        0.0        0.0      6.9       4.5      14.8      20.1      25.4    391.63
    21     5  2011    68     4     340.4     0.0      0.0    0.0    0.0    0.0      0.0      0.0   -9.90      0.2      0.2    100      5.3      4.1    77      5.5     4.2      78     16.6    0.80     -9     23      0      0      0    91.9    91.9      0     1.01      5.3      4.1      4.1    77    12.7     6.088    24.2    1.476    1.736      98        0.88    0.000    0.000     340.4    200.4    0.80   200.4     377.6     280.0     264.4     214.8     203.8     170.4    0.000     0.000     0.000     0.000     0.000    0.80     0.00    0.00      0   -9.90   -9.00       20.1       20.7       20.5       20.8       21.3       27.4       34.7       35.0       35.0       35.0       35.0       35.0        0.0        0.0        0.0        0.0        0.0        0.0        0.0        0.0        0.0        0.0        0.0        0.0      0.0       5.2      15.2      21.6      28.0    391.63
    22     5  2011    69     4     337.2     0.0      0.0    0.0    0.0    0.0      0.0      0.0   -9.90      0.1      0.1    100      4.3      3.1    72      4.5     3.3      73     15.2    0.80     -9     28      1      0      0    91.9    91.9      0     1.01      4.3      3.1      3.1    72    12.7     6.179    26.0    1.606    1.889      97        0.94    0.000    0.000     337.2    197.2    0.80   197.2     377.6     280.0     260.7     212.2     201.5     170.4    0.000     0.000     0.000     0.000     0.000    0.80     0.00    0.00      0   -9.90   -9.00       20.0       20.7       20.5       20.8       21.3       25.3       33.7       35.0       35.0       35.0       35.0       35.0        0.0        0.0        0.0        0.0        0.0        0.0        0.0        0.0        0.0        0.0        0.0        0.0      0.0       4.3      13.5      20.2      27.0    391.63
    23     5  2011    70     4     334.1     0.0      0.0    0.0    0.0    0.0      0.0      0.0   -9.90      0.2      0.2    100      4.7      2.9    62      4.9     3.1      63     16.6    0.80     -9     38      3      0      0    91.9    91.9      0     1.01      4.7      2.9      2.9    62    12.7     6.259    27.7    1.734    2.040      96        1.00    0.000    0.000     334.1    194.1    0.80   194.1     377.6     280.0     262.3     213.4     211.8     170.4    0.000     0.000     0.000     0.000     0.000    0.80     0.00    0.00      0   -9.90   -9.00       19.8       20.7       20.5       20.8       21.3       23.3       32.7       35.0       35.0       35.0       35.0       35.0        0.0        0.0        0.0        0.0        0.0        0.0        0.0        0.0        0.0        0.0        0.0        0.0      0.0       4.7      14.4      21.6      28.7    391.63
    24     5  2011    71     4     331.3     0.0      0.0    0.0    0.0    0.0      0.0      0.0   -9.90      0.2      0.2    100      4.8      2.6    54      5.0     2.8      56     17.1    0.80     -9     46      7      0      0    91.8    91.8      0     1.00      4.8      2.6      2.6    54    12.7     6.328    29.4    1.860    2.188      96        1.06    0.000    0.000     331.3    191.3    0.80   191.3     377.6     280.0     262.7     213.7     212.0     170.4    0.000     0.000     0.000     0.000     0.000    0.80     0.00    0.00      0   -9.90   -9.00       19.6       20.7       20.5       20.8       21.3       21.8       31.6       35.0       35.0       35.0       35.0       35.0        0.0        0.0        0.0        0.0        0.0        0.0        0.0        0.0        0.0        0.0        0.0        0.0      0.0       4.8      15.8      22.1      28.4    391.63
    25     5  2011    72     4     328.7     0.0      0.0    0.0    0.0    0.0      0.0      0.0   -9.90      0.2      0.2    100      5.2      2.4    47      5.4     2.6      49     16.9    0.80     -9     53     11      0      0    91.8    91.8      0     1.00      5.2      2.4      2.4    47    12.7     6.387    31.0    1.983    2.333      95        1.11    0.000    0.000     328.7    188.7    0.80   188.7     377.6     280.0     264.4     214.8     212.9     170.4    0.000     0.000     0.000     0.000     0.000    0.80     0.00    0.00      0   -9.90   -9.00       19.5       20.7       20.5       20.8       21.3       21.3       30.1       34.6       35.0       35.0       35.0       35.0        0.0        0.0        0.0        0.0        0.0        0.0        0.0        0.0        0.0        0.0        0.0        0.0      0.0       5.2      15.5      21.9      28.4    391.63
    26     5  2011    73     4     326.2     0.0      0.0    0.0    0.0    0.0      0.0      0.0   -9.90      0.2      0.2    100      5.7      2.2    39      5.9     2.4      42     13.4    0.80     -9     61     16      0      0    91.6    91.6      0     1.00      5.7      2.2      2.2    39    12.7     6.437    32.6    2.101    2.472      94        1.16    0.000    0.000     326.2    186.2    0.80   186.2     377.6     280.0     266.4     216.3     214.0     170.4    0.000     0.000     0.000     0.000     0.000    0.80     0.00    0.00      0   -9.90   -9.00       19.3       20.7       20.5       20.8       21.3       21.3       28.6       33.9       35.0       35.0       35.0       35.0        0.0        0.0        0.0        0.0        0.0        0.0        0.0        0.0        0.0        0.0        0.0        0.0      0.0       5.7      13.2      18.4      23.6    391.63
    27     5  2011    74     4     324.2     0.0      0.0    0.0    0.0    0.0      0.0      0.0   -9.90      0.2      0.2    100      5.2      1.8    35      5.3     2.0      38     12.6    0.80     -9     65     20      0      0    91.5    91.5      0     0.99      5.2      1.8      1.8    35    12.7     6.481    34.2    2.218    2.609      93        1.21    0.000    0.000     324.2    184.2    0.80   184.2     377.6     280.0     264.4     214.8     212.9     170.4    0.000     0.000     0.000     0.000     0.000    0.80     0.00    0.00      0   -9.90   -9.00       19.1       20.7       20.5       20.8       21.3       21.3       27.1       33.6       35.0       35.0       35.0       35.0        0.0        0.0        0.0        0.0        0.0        0.0        0.0        0.0        0.0        0.0        0.0        0.0      0.0       5.2      11.0      17.6      24.2    391.63
    28     5  2011    75     4     322.6     0.0      0.0    0.0    0.0    0.0      0.0      0.0   -9.90      0.2      0.2    100      4.6      1.5    32      4.8     1.7      34     13.2    0.80     -9     68     24      0      0    91.4    91.4      0     0.99      4.6      1.5      1.5    32    12.7     6.521    35.8    2.332    2.744      91        1.26    0.000    0.000     322.6    182.6    0.80   182.6     377.6     280.0     262.3     213.4     211.8     170.4    0.000     0.000     0.000     0.000     0.000    0.80     0.00    0.00      0   -9.90   -9.00       18.9       20.7       20.5       20.8       21.3       21.3       25.6       33.6       35.0       35.0       35.0       35.0        0.0        0.0        0.0        0.0        0.0        0.0        0.0        0.0        0.0        0.0        0.0        0.0      0.0       4.7      11.6      18.2      24.9    391.63
    29     5  2011    76     4     320.9     0.0      0.0    0.0    0.0    0.0      0.0      0.0   -9.90      0.2      0.2    100      5.4      1.4    26      5.6     1.6      29     13.8    0.80     -9     74     31      0      0    91.2    91.2      0     0.98      5.4      1.4      1.4    26    12.7     6.554    37.3    2.442    2.873      90        1.31    0.000    0.000     320.9    180.9    0.80   180.9     377.6     280.0     265.6     215.7     213.6     170.4    0.000     0.000     0.000     0.000     0.000    0.80     0.00    0.00      0   -9.90   -9.00       18.7       20.7       20.5       20.8       21.3       21.3       24.2       33.5       35.0       35.0       35.0       35.0        0.0        0.0        0.0        0.0        0.0        0.0        0.0        0.0        0.0        0.0        0.0        0.0      0.0       5.5      10.7      18.8      26.9    391.63
    30     5  2011    77     4     319.4     0.0      0.0    0.0    0.0    0.0      0.0      0.0   -9.90      0.2      0.2    100      5.7      1.3    22      5.9     1.5      25     17.4    0.80     -9     78     38      0      0    91.1    91.1      0     0.98      5.7      1.3      1.3    22    12.7     6.582    38.7    2.548    2.997      89        1.36    0.000    0.000     319.4    179.4    0.80   179.4     377.6     280.0     266.8     216.6     214.2     170.4    0.000     0.000     0.000     0.000     0.000    0.80     0.00    0.00      0   -9.90   -9.00       18.4       20.7       20.5       20.8       21.3       21.3       22.9       33.5       35.0       35.0       35.0       35.0        0.0        0.0        0.0        0.0        0.0        0.0        0.0        0.0        0.0        0.0        0.0        0.0      0.0       5.8      15.8      22.4      28.9    391.63
    31     5  2011    78     4     318.4     0.0      0.0    0.0    0.0    0.0      0.0      0.0   -9.90      0.2      0.2    100      4.2      0.9    21      4.3     1.1      24     15.8    0.80     -9     79     39      0      0    90.9    90.9      0     0.97      4.2      0.9      0.9    21    12.7     6.608    40.1    2.653    3.121      88        1.40    0.000    0.000     318.4    178.4    0.80   178.4     377.6     280.0     260.7     212.2     211.0     170.4    0.000     0.000     0.000     0.000     0.000    0.80     0.00    0.00      0   -9.90   -9.00       18.3       20.7       20.5       20.8       21.3       21.3       22.1       33.5       35.0       35.0       35.0       35.0        0.0        0.0        0.0        0.0        0.0        0.0        0.0        0.0        0.0        0.0        0.0        0.0      0.0       4.3      16.1      20.8      25.5    391.63
     1     6  2011    79     4     321.7     5.1      0.0    0.0    5.1    0.0      0.0      0.0   -9.90      0.2      0.2    100      4.5      1.6    35      4.7     1.8      37     16.2    0.80     -9     65     17      0      0    90.8    90.8      0     0.97      4.5      1.6      1.6    35    12.7     6.650    41.7    2.770    3.259      87        1.45    0.000    0.000     321.7    181.7    0.80   181.7     377.6     280.0     262.3     213.4     211.8     170.4    0.000     0.000     0.000     0.000     0.000    0.80     0.00    0.00      0   -9.90   -9.00       21.6       20.7       20.5       20.8       21.3       21.3       22.1       33.5       35.0       35.0       35.0       35.0        0.0        0.0        0.0        0.0        0.0        0.0        0.0        0.0        0.0        0.0        0.0        0.0      5.1       4.7      14.2      21.2      28.2    391.63
     2     6  2011    80     4     328.3    10.5      0.0    0.0   10.5    0.0      0.0      0.0   -9.90      0.1      0.1    100      3.7      3.7   100      3.9     3.9     100     15.5    0.80     -9      0      0      0      0    92.0    92.0      0     0.98      3.7      3.7      3.7   100    12.7     6.775    43.4    2.943    3.463      87        1.51    0.000    0.000     328.3    188.3    0.80   188.3     377.6     280.0     258.6     210.8     209.9     170.4    0.000     0.000     0.000     0.000     0.000    0.80     0.00    0.00      0   -9.90   -9.00       28.2       20.7       20.5       20.8       21.3       21.3       22.1       33.5       35.0       35.0       35.0       35.0        0.0        0.0        0.0        0.0        0.0        0.0        0.0        0.0        0.0        0.0        0.0        0.0     10.5       3.8      16.3      20.5      24.6    391.63
     3     6  2011    81     4     322.0     0.0      0.0    0.0    0.0    0.0      0.0      0.0   -9.90      0.2      0.2    100      6.1      6.1   100      6.3     6.3     100     18.8    0.80     -9      0     -9      0      0    91.8    91.8      0     0.98      6.1      6.1      6.1   100    12.7     6.899    45.0    3.102    3.649      88        1.54    0.000    0.000     322.0    182.0    0.80   182.0     377.6     280.0     268.5     217.7     206.3     170.4    0.000     0.000     0.000     0.000     0.000    0.80     0.00    0.00      0   -9.90   -9.00       22.9       20.7       20.5       20.8       21.3       21.3       21.6       33.0       35.0       35.0       35.0       35.0        0.0        0.0        0.0        0.0        0.0        0.0        0.0        0.0        0.0        0.0        0.0        0.0      0.0       6.2      17.6      23.8      29.9    391.63
     4     6  2011    82     4     320.5     1.3      0.0    0.0    1.3    0.0      0.0      0.0   -9.90      0.2      0.2    100      5.6      2.6    47      5.8     2.9      49     18.4    0.80     -9     53     -9      0      0    91.7    91.7      0     0.97      5.6      2.6      2.6    47    12.7     6.956    46.4    3.229    3.799      87        1.58    0.000    0.000     320.5    180.5    0.80   180.5     377.6     280.0     266.8     216.6     205.3     170.4    0.000     0.000     0.000     0.000     0.000    0.80     0.00    0.00      0   -9.90   -9.00       21.4       20.7       20.5       20.8       21.3       21.3       21.6       33.0       35.0       35.0       35.0       35.0        0.0        0.0        0.0        0.0        0.0        0.0        0.0        0.0        0.0        0.0        0.0        0.0      1.3       5.8      16.9      23.9      30.9    391.63
     5     6  2011    83     4     319.2     0.0      0.0    0.0    0.0    0.0      0.0      0.0   -9.90      0.2      0.2    100      5.5      1.1    20      5.7     1.3      23     17.4    0.80     -9     80     -9      0      0    91.6    91.6      0     0.97      5.5      1.1      1.1    20    12.7     6.981    47.8    3.340    3.929      86        1.63    0.000    0.000     319.2    179.2    0.80   179.2     377.6     280.0     266.4     216.3     205.0     170.4    0.000     0.000     0.000     0.000     0.000    0.80     0.00    0.00      0   -9.90   -9.00       21.1       20.7       20.5       20.8       21.3       21.3       21.4       32.1       35.0       35.0       35.0       35.0        0.0        0.0        0.0        0.0        0.0        0.0        0.0        0.0        0.0        0.0        0.0        0.0      0.0       5.7      16.1      22.4      28.7    391.63

   Run:   2
   Day Month  Year   DAP Stage   WC(1.20)   Rain     Irri   Surf   Infilt   RO    Drain       CR    Zgwt       Ex       E     E/Ex     Trx       Tr  Tr/Trx    ETx      ET  ET/ETx      GD       Z     StExp  StSto  StSen StSalt StWeed   CC      CCw     StTr  Kc(Tr)     Trx       Tr      TrW  Tr/Trx   WP    Biomass     HI    Y(dry)  Y(fresh)  Brelative    WPet      Bin     Bout  WC(1.20) Wr(0.80)     Z       Wr    Wr(SAT)    Wr(FC)   Wr(exp)   Wr(sto)   Wr(sen)   Wr(PWP)    SaltIn    SaltOut   SaltUp   Salt(1.20)  SaltZ     Z       ECe    ECsw   StSalt  Zgwt    ECgw       WC01       WC 2       WC 3       WC 4       WC 5       WC 6       WC 7       WC 8       WC 9       WC10       WC11       WC12      ECe01      ECe 2      ECe 3      ECe 4      ECe 5      ECe 6      ECe 7      ECe 8      ECe 9      ECe10      ECe11      ECe12     Rain       ETo      Tmin      Tavg      Tmax      CO2
                                      mm      mm       mm     mm     mm     mm       mm       mm      m        mm       mm     %        mm       mm    %        mm      mm       %  degC-day     m       %      %      %      %      %      %       %       %       -        mm       mm       mm    %     g/m2    ton/ha      %    ton/ha   ton/ha       %       kg/m3   ton/ha   ton/ha      mm       mm       m       mm        mm        mm        mm        mm        mm         mm    ton/ha    ton/ha    ton/ha    ton/ha    ton/ha     m      dS/m    dS/m      %     m      dS/m       0.05       0.15       0.25       0.35       0.45       0.55       0.65       0.75       0.85       0.95       1.05       1.15       0.05       0.15       0.25       0.35       0.45       0.55       0.65       0.75       0.85       0.95       1.05       1.15       mm        mm     degC      degC      degC       ppm
    15     3  2012     1     1     418.1     0.0      0.0    0.0    0.0    0.0      0.0      0.0   -9.90      2.1      1.9     90      0.0      0.0   100      2.1     1.9      90      0.0    0.30     -9     -9     -9      0     -9     0.0     0.0      0    -9.00      0.0      0.0      0.0   100     0.0     0.000    -9.9    0.000    0.000      -9        0.00    0.000    0.000     418.1    278.1    0.30   103.1     141.6     105.0      98.8      77.0      76.2      63.9    0.000     0.000     0.000     0.000     0.000    0.30     0.00    0.00      0   -9.90   -9.00       33.1       35.0       35.0       35.0       35.0       35.0       35.0       35.0       35.0       35.0       35.0       35.0        0.0        0.0        0.0        0.0        0.0        0.0        0.0        0.0        0.0        0.0        0.0        0.0      0.0       1.9      -1.2       2.4       6.0    393.82
    16     3  2012     2     1     416.5     0.0      0.0    0.0    0.0    0.0      0.0      0.0   -9.90      2.2      1.6     74      0.0      0.0   100      2.2     1.6      74      0.0    0.30     -9     -9     -9      0     -9     0.0     0.0      0    -9.00      0.0      0.0      0.0   100     0.0     0.000    -9.9    0.000    0.000      -9        0.00    0.000    0.000     416.5    276.5    0.30   101.5     141.6     105.0      98.8      77.1      76.2      63.9    0.000     0.000     0.000     0.000     0.000    0.30     0.00    0.00      0   -9.90   -9.00       31.5       35.0       35.0       35.0       35.0       35.0       35.0       35.0       35.0       35.0       35.0       35.0        0.0        0.0        0.0        0.0        0.0        0.0        0.0        0.0        0.0        0.0        0.0        0.0      0.0       2.0      -1.9       3.3       8.6    393.82
[...]
    15     5  2019    62     3     360.7     1.9      0.0    0.0    1.9    0.0      0.0      0.0   -9.90      0.1      0.1    100      3.1      3.1   100      3.2     3.2     100     11.3    0.80     -9      0      0      0      0    91.8    91.8      0     1.02      3.1      3.1      3.1   100    13.2     5.756    13.8    0.796    0.937      93        0.58    0.000    0.000     360.7    220.7    0.80   220.7     377.6     280.0     255.3     208.4     198.3     170.4    0.000     0.000     0.000     0.000     0.000    0.80     0.00    0.00      0   -9.90   -9.00       21.7       21.2       20.4       21.6       30.7       35.0       35.0       35.0       35.0       35.0       35.0       35.0        0.0        0.0        0.0        0.0        0.0        0.0        0.0        0.0        0.0        0.0        0.0        0.0      1.9       3.0      12.5      16.3      20.1    410.00
    16     5  2019    63     3     358.8     1.4      0.0    0.0    1.4    0.0      0.0      0.0   -9.90      0.1      0.1    100      3.2      3.2   100      3.3     3.3     100     12.6    0.80     -9      0      0      0      0    91.9    91.9      0     1.02      3.2      3.2      3.2   100    13.2     5.891    15.7    0.924    1.087      93        0.65    0.000    0.000     358.8    218.8    0.80   218.8     377.6     280.0     255.8     208.7     198.5     170.4    0.000     0.000     0.000     0.000     0.000    0.80     0.00    0.00      0   -9.90   -9.00       19.8       21.2       20.4       21.6       30.7       35.0       35.0       35.0       35.0       35.0       35.0       35.0        0.0        0.0        0.0        0.0        0.0        0.0        0.0        0.0        0.0        0.0        0.0        0.0      1.4       3.1      12.6      17.6      22.5    410.00
    17     5  2019    64     3     353.6     0.0      0.0    0.0    0.0    0.0      0.0      0.0   -9.90      0.2      0.2    100      5.0      5.0   100      5.2     5.2     100     14.5    0.80     -9      0      0      0      0    91.9    91.9      0     1.02      5.0      5.0      5.0   100    13.2     6.025    17.5    1.056    1.243      94        0.72    0.000    0.000     353.6    213.6    0.80   213.6     377.6     280.0     263.1     213.9     203.0     170.4    0.000     0.000     0.000     0.000     0.000    0.80     0.00    0.00      0   -9.90   -9.00       19.6       21.2       20.4       21.1       28.0       33.3       35.0       35.0       35.0       35.0       35.0       35.0        0.0        0.0        0.0        0.0        0.0        0.0        0.0        0.0        0.0        0.0        0.0        0.0      0.0       4.9      11.7      19.5      27.3    410.00
    18     5  2019    65     3     357.2     7.4      0.0    0.0    7.4    0.0      0.0      0.0   -9.90      0.1      0.1    100      3.7      3.7   100      3.8     3.8     100     15.2    0.80     -9      0      0      0      0    91.9    91.9      0     1.02      3.7      3.7      3.7   100    13.2     6.159    19.4    1.194    1.404      94        0.79    0.000    0.000     357.2    217.2    0.80   217.2     377.6     280.0     257.8     210.2     199.8     170.4    0.000     0.000     0.000     0.000     0.000    0.80     0.00    0.00      0   -9.90   -9.00       23.3       21.2       20.4       21.1       28.0       33.3       35.0       35.0       35.0       35.0       35.0       35.0        0.0        0.0        0.0        0.0        0.0        0.0        0.0        0.0        0.0        0.0        0.0        0.0      7.4       3.6      16.0      20.2      24.4    410.00
    19     5  2019    66     3     353.7     0.6      0.0    0.0    0.6    0.0      0.0      0.0   -9.90      0.1      0.1    100      4.0      4.0   100      4.1     4.1     100     16.1    0.80     -9      0      0      0      0    91.9    91.9      0     1.01      4.0      4.0      4.0   100    13.2     6.293    21.2    1.336    1.572      94        0.87    0.000    0.000     353.7    213.7    0.80   213.7     377.6     280.0     259.0     211.0     200.5     170.4    0.000     0.000     0.000     0.000     0.000    0.80     0.00    0.00      0   -9.90   -9.00       19.8       21.2       20.4       21.1       28.0       33.3       35.0       35.0       35.0       35.0       35.0       35.0        0.0        0.0        0.0        0.0        0.0        0.0        0.0        0.0        0.0        0.0        0.0        0.0      0.6       3.9      14.9      21.1      27.4    410.00
    20     5  2019    67     4     351.5     2.3      0.0    0.0    2.3    0.0      0.0      0.0   -9.90      0.1      0.1    100      4.4      4.4   100      4.5     4.5     100     15.6    0.80     -9      0      0      0      0    91.9    91.9      0     1.01      4.4      4.4      4.4   100    13.2     6.427    23.1    1.483    1.744      94        0.93    0.000    0.000     351.5    211.5    0.80   211.5     377.6     280.0     260.7     212.2     201.5     170.4    0.000     0.000     0.000     0.000     0.000    0.80     0.00    0.00      0   -9.90   -9.00       20.3       21.2       20.4       21.1       25.3       33.2       35.0       35.0       35.0       35.0       35.0       35.0        0.0        0.0        0.0        0.0        0.0        0.0        0.0        0.0        0.0        0.0        0.0        0.0      2.3       4.3      15.1      20.6      26.0    410.00
    21     5  2019    68     4     346.5     0.1      0.0    0.0    0.1    0.0      0.0      0.0   -9.90      0.2      0.1     61      5.4      5.0    91      5.6     5.1      90     13.9    0.80     -9      9      0      0      0    91.9    91.9      0     1.01      5.4      5.0      5.0    91    13.2     6.548    24.9    1.630    1.918      94        0.99    0.000    0.000     346.5    206.5    0.80   206.5     377.6     280.0     265.2     215.4     204.3     170.4    0.000     0.000     0.000     0.000     0.000    0.80     0.00    0.00      0   -9.90   -9.00       20.3       21.2       20.4       21.1       22.8       31.1       34.6       35.0       35.0       35.0       35.0       35.0        0.0        0.0        0.0        0.0        0.0        0.0        0.0        0.0        0.0        0.0        0.0        0.0      0.1       5.4      13.1      18.9      24.7    410.00
    22     5  2019    69     4     342.2     0.1      0.0    0.0    0.1    0.0      0.0      0.0   -9.90      0.2      0.1     61      5.4      4.4    80      5.6     4.5      80     13.2    0.80     -9     20      0      0      0    91.9    91.9      0     1.01      5.4      4.4      4.4    80    13.2     6.655    26.7    1.777    2.091      94        1.06    0.000    0.000     342.2    202.2    0.80   202.2     377.6     280.0     265.2     215.4     204.3     170.4    0.000     0.000     0.000     0.000     0.000    0.80     0.00    0.00      0   -9.90   -9.00       20.3       21.2       20.4       21.1       21.2       29.0       33.9       35.0       35.0       35.0       35.0       35.0        0.0        0.0        0.0        0.0        0.0        0.0        0.0        0.0        0.0        0.0        0.0        0.0      0.1       5.4      11.2      18.2      25.2    410.00
    23     5  2019    70     4     338.4     0.1      0.0    0.0    0.1    0.0      0.0      0.0   -9.90      0.2      0.1     62      5.3      3.8    71      5.5     3.9      71     14.2    0.80     -9     29      1      0      0    91.9    91.9      0     1.00      5.3      3.8      3.8    71    13.2     6.749    28.5    1.922    2.262      93        1.12    0.000    0.000     338.4    198.4    0.80   198.4     377.6     280.0     264.8     215.1     204.0     170.4    0.000     0.000     0.000     0.000     0.000    0.80     0.00    0.00      0   -9.90   -9.00       20.3       21.2       20.4       21.1       21.2       26.9       32.4       34.8       35.0       35.0       35.0       35.0        0.0        0.0        0.0        0.0        0.0        0.0        0.0        0.0        0.0        0.0        0.0        0.0      0.1       5.3      12.4      19.2      26.1    410.00
    24     5  2019    71     4     342.4     7.8      0.0    0.0    7.8    0.0      0.0      0.0   -9.90      0.1      0.1    100      3.6      3.6   100      3.7     3.7     100     13.9    0.80     -9      0      0      0      0    92.0    92.0      0     1.00      3.6      3.6      3.6   100    13.2     6.881    30.3    2.085    2.453      93        1.18    0.000    0.000     342.4    202.4    0.80   202.4     377.6     280.0     257.8     210.2     209.4     170.4    0.000     0.000     0.000     0.000     0.000    0.80     0.00    0.00      0   -9.90   -9.00       24.3       21.2       20.4       21.1       21.2       26.9       32.4       34.8       35.0       35.0       35.0       35.0        0.0        0.0        0.0        0.0        0.0        0.0        0.0        0.0        0.0        0.0        0.0        0.0      7.8       3.6      14.1      18.9      23.7    410.00
    25     5  2019    72     4     341.8     3.3      0.0    0.0    3.3    0.0      0.0      0.0   -9.90      0.1      0.1    100      3.8      3.8   100      3.9     3.9     100     13.8    0.80     -9      0      0      0      0    92.0    92.0      0     1.00      3.8      3.8      3.8   100    13.2     7.013    32.1    2.253    2.650      94        1.25    0.000    0.000     341.8    201.8    0.80   201.8     377.6     280.0     258.6     210.8     200.3     170.4    0.000     0.000     0.000     0.000     0.000    0.80     0.00    0.00      0   -9.90   -9.00       23.7       21.2       20.4       21.1       21.2       26.9       32.4       34.8       35.0       35.0       35.0       35.0        0.0        0.0        0.0        0.0        0.0        0.0        0.0        0.0        0.0        0.0        0.0        0.0      3.3       3.8      13.9      18.8      23.7    410.00
    26     5  2019    73     4     337.9     0.0      0.0    0.0    0.0    0.0      0.0      0.0   -9.90      0.2      0.2    100      5.3      3.7    70      5.5     3.9      71     15.4    0.80     -9     30      1      0      0    92.0    92.0      0     1.00      5.3      3.7      3.7    70    13.2     7.105    33.9    2.408    2.833      93        1.31    0.000    0.000     337.9    197.9    0.80   197.9     377.6     280.0     264.8     215.1     204.0     170.4    0.000     0.000     0.000     0.000     0.000    0.80     0.00    0.00      0   -9.90   -9.00       19.8       21.2       20.4       21.1       21.2       26.9       32.4       34.8       35.0       35.0       35.0       35.0        0.0        0.0        0.0        0.0        0.0        0.0        0.0        0.0        0.0        0.0        0.0        0.0      0.0       5.3      14.0      20.4      26.9    410.00
    27     5  2019    74     4     334.3     0.0      0.0    0.0    0.0    0.0      0.0      0.0   -9.90      0.2      0.2    100      5.8      3.4    59      6.0     3.6      61     16.8    0.80     -9     41      5      0      0    91.9    91.9      0     0.99      5.8      3.4      3.4    59    13.2     7.182    35.6    2.560    3.011      93        1.37    0.000    0.000     334.3    194.3    0.80   194.3     377.6     280.0     266.8     216.6     214.2     170.4    0.000     0.000     0.000     0.000     0.000    0.80     0.00    0.00      0   -9.90   -9.00       19.7       21.2       20.4       21.1       21.2       24.9       31.1       34.8       35.0       35.0       35.0       35.0        0.0        0.0        0.0        0.0        0.0        0.0        0.0        0.0        0.0        0.0        0.0        0.0      0.0       5.8      15.4      21.8      28.2    410.00
    28     5  2019    75     4     331.5     0.4      0.0    0.0    0.4    0.0      0.0      0.0   -9.90      0.2      0.2    100      5.9      3.1    52      6.1     3.3      53     16.2    0.80     -9     48      8      0      0    91.8    91.8      0     0.99      5.9      3.1      3.1    52    13.2     7.250    37.3    2.707    3.185      92        1.42    0.000    0.000     331.5    191.5    0.80   191.5     377.6     280.0     267.7     217.1     214.7     170.4    0.000     0.000     0.000     0.000     0.000    0.80     0.00    0.00      0   -9.90   -9.00       19.8       21.2       20.4       21.1       21.2       23.0       29.9       34.8       35.0       35.0       35.0       35.0        0.0        0.0        0.0        0.0        0.0        0.0        0.0        0.0        0.0        0.0        0.0        0.0      0.4       6.0      14.9      21.2      27.6    410.00
    29     5  2019    76     4     328.9     0.0      0.0    0.0    0.0    0.0      0.0      0.0   -9.90      0.2      0.2    100      5.0      2.4    47      5.2     2.6      49     17.2    0.80     -9     53     10      0      0    91.8    91.8      0     0.98      5.0      2.4      2.4    47    13.2     7.311    39.0    2.853    3.357      91        1.48    0.000    0.000     328.9    188.9    0.80   188.9     377.6     280.0     264.0     214.5     212.7     170.4    0.000     0.000     0.000     0.000     0.000    0.80     0.00    0.00      0   -9.90   -9.00       19.7       21.2       20.4       21.1       21.2       21.7       28.8       34.8       35.0       35.0       35.0       35.0        0.0        0.0        0.0        0.0        0.0        0.0        0.0        0.0        0.0        0.0        0.0        0.0      0.0       5.1      15.9      22.2      28.5    410.00
    30     5  2019    77     4     330.9     4.5      0.0    0.0    4.5    0.0      0.0      0.0   -9.90      0.2      0.2    100      4.4      2.4    54      4.6     2.5      56     18.1    0.80     -9     46      7      0      0    91.7    91.7      0     0.98      4.4      2.4      2.4    54    13.2     7.381    40.7    3.007    3.538      91        1.54    0.000    0.000     330.9    190.9    0.80   190.9     377.6     280.0     261.5     212.8     211.4     170.4    0.000     0.000     0.000     0.000     0.000    0.80     0.00    0.00      0   -9.90   -9.00       21.6       21.2       20.4       21.1       21.2       21.7       28.8       34.8       35.0       35.0       35.0       35.0        0.0        0.0        0.0        0.0        0.0        0.0        0.0        0.0        0.0        0.0        0.0        0.0      4.5       4.5      17.5      23.1      28.8    410.00
    31     5  2019    78     4     329.5     0.5      0.0    0.0    0.5    0.0      0.0      0.0   -9.90      0.1      0.1    100      3.3      1.8    53      3.4     1.9      55     15.6    0.80     -9     47      7      0      0    91.6    91.6      0     0.98      3.3      1.8      1.8    53    13.2     7.450    42.5    3.163    3.721      90        1.60    0.000    0.000     329.5    189.5    0.80   189.5     377.6     280.0     257.0     209.6     209.0     170.4    0.000     0.000     0.000     0.000     0.000    0.80     0.00    0.00      0   -9.90   -9.00       20.2       21.2       20.4       21.1       21.2       21.7       28.8       34.8       35.0       35.0       35.0       35.0        0.0        0.0        0.0        0.0        0.0        0.0        0.0        0.0        0.0        0.0        0.0        0.0      0.5       3.4      16.6      20.6      24.7    410.00
     1     6  2019    79     4     327.5     0.0      0.0    0.0    0.0    0.0      0.0      0.0   -9.90      0.1      0.1    100      3.9      1.8    46      4.0     1.9      48     15.7    0.80     -9     54     11      0      0    91.5    91.5      0     0.97      3.9      1.8      1.8    46    13.2     7.509    44.1    3.314    3.899      89        1.66    0.000    0.000     327.5    187.5    0.80   187.5     377.6     280.0     259.5     211.3     210.3     170.4    0.000     0.000     0.000     0.000     0.000    0.80     0.00    0.00      0   -9.90   -9.00       20.1       21.2       20.4       21.1       21.2       21.2       27.5       34.8       35.0       35.0       35.0       35.0        0.0        0.0        0.0        0.0        0.0        0.0        0.0        0.0        0.0        0.0        0.0        0.0      0.0       4.0      15.3      20.7      26.1    410.00
     2     6  2019    80     4     325.4     0.0      0.0    0.0    0.0    0.0      0.0      0.0   -9.90      0.2      0.2    100      5.1      1.9    38      5.3     2.1      40     16.1    0.80     -9     62     18      0      0    91.4    91.4      0     0.97      5.1      1.9      1.9    38    13.2     7.558    45.8    3.458    4.068      88        1.71    0.000    0.000     325.4    185.4    0.80   185.4     377.6     280.0     264.8     215.1     213.1     170.4    0.000     0.000     0.000     0.000     0.000    0.80     0.00    0.00      0   -9.90   -9.00       19.9       21.2       20.4       21.1       21.2       21.2       26.0       34.4       35.0       35.0       35.0       35.0        0.0        0.0        0.0        0.0        0.0        0.0        0.0        0.0        0.0        0.0        0.0        0.0      0.0       5.3      13.8      21.1      28.5    410.00
     3     6  2019    81     4     342.3    20.4      0.0    0.0   20.4    0.0      0.0      0.0   -9.90      0.1      0.1    100      3.4      3.4   100      3.5     3.5     100     16.1    0.80     -9      0      0      0      0    91.3    91.3      0     0.96      3.4      3.4      3.4   100    13.2     7.685    47.6    3.657    4.303      89        1.78    0.000    0.000     342.3    202.3    0.80   202.3     377.6     280.0     257.4     209.9     209.2     170.4    0.000     0.000     0.000     0.000     0.000    0.80     0.00    0.00      0   -9.90   -9.00       36.8       21.2       20.4       21.1       21.2       21.2       26.0       34.4       35.0       35.0       35.0       35.0        0.0        0.0        0.0        0.0        0.0        0.0        0.0        0.0        0.0        0.0        0.0        0.0     20.4       3.5      16.8      21.1      25.4    410.00
     4     6  2019    82     4     344.7     6.4      0.0    0.0    6.4    0.0      0.0      0.0   -9.90      0.2      0.2    100      3.7      3.7   100      3.9     3.9     100     14.8    0.80     -9      0     -9      0      0    91.1    91.1      0     0.96      3.7      3.7      3.7   100    13.2     7.811    49.4    3.861    4.542      89        1.85    0.000    0.000     344.7    204.7    0.80   204.7     377.6     280.0     259.0     211.0     200.5     170.4    0.000     0.000     0.000     0.000     0.000    0.80     0.00    0.00      0   -9.90   -9.00       38.5       21.9       20.4       21.1       21.2       21.2       26.0       34.4       35.0       35.0       35.0       35.0        0.0        0.0        0.0        0.0        0.0        0.0        0.0        0.0        0.0        0.0        0.0        0.0      6.4       3.9      14.8      19.8      24.7    410.00
     5     6  2019    83     4     340.2     0.0      0.0    0.0    0.0    0.0      0.0      0.0   -9.90      0.2      0.2    100      4.4      4.4   100      4.6     4.6     100     16.1    0.80     -9      0     -9      0      0    91.0    91.0      0     0.95      4.4      4.4      4.4   100    13.2     7.937    51.3    4.069    4.787      89        1.90    0.000    0.000     340.2    200.2    0.80   200.2     377.6     280.0     261.9     213.1     202.3     170.4    0.000     0.000     0.000     0.000     0.000    0.80     0.00    0.00      0   -9.90   -9.00       32.4       23.4       20.4       21.1       21.2       21.2       26.0       34.4       35.0       35.0       35.0       35.0        0.0        0.0        0.0        0.0        0.0        0.0        0.0        0.0        0.0        0.0        0.0        0.0      0.0       4.6      15.1      21.1      27.0    410.00
