AquaCrop 7.0 (August 2022) - Output created on (date) : 27-10-2022   at (time) : 12:37:16

    RunNr     Day1   Month1    Year1     Rain      ETo       GD     CO2      Irri   Infilt   Runoff    Drain   Upflow        E     E/Ex       Tr      TrW   Tr/Trx    SaltIn   SaltOut    SaltUp  SaltProf     Cycle   SaltStr  FertStr  WeedStr  TempStr   ExpStr   StoStr  BioMass  Brelative   HI    Y(dry)  Y(fresh)    WPet      Bin     Bout     DayN   MonthN    YearN
                                           mm       mm  degC.day    ppm        mm       mm       mm       mm       mm       mm        %       mm       mm        %    ton/ha    ton/ha    ton/ha    ton/ha      days       %        %        %        %        %        %    ton/ha        %       %    ton/ha   ton/ha    kg/m3   ton/ha   ton/ha
   Tot(1)       15        3     2011    135.2    289.0    664.0   391.63      0.0    124.0     11.2     23.3      0.0     47.4       81    161.6    159.9       76     0.000     0.000     0.000     0.000       75        0        0        0       31        1       12     6.750       83     48.9    3.302    3.885     1.58    0.000    0.000        6        6     2011  GreenPeas_Hist_Centre.PRM
   Tot(2)       15        3     2012    128.2    311.2    808.1   393.82      0.0    126.4      1.8      0.0      0.0     47.3       58    171.5    171.2       74     0.000     0.000     0.000     0.000       75        0        0        0       20       24       17     7.503       76     48.4    3.630    4.270     1.66    0.000    0.000        6        6     2012  GreenPeas_Hist_Centre.PRM
   Tot(3)       15        3     2013    132.8    294.0    735.5   396.48      0.0    130.7      2.1      8.7      0.0     58.9       76    154.3    154.4       70     0.000     0.000     0.000     0.000       75        0        0        0       25       23       20     6.288       67     46.0    2.894    3.404     1.36    0.000    0.000        6        6     2013  GreenPeas_Hist_Centre.PRM
   Tot(4)       15        3     2014    153.0    267.7    718.8   398.55      0.0    150.4      2.6      2.4      0.0     39.0       55    186.4    183.8       96     0.000     0.000     0.000     0.000       75        0        0        0       23        1        2     9.144       97     51.0    4.663    5.485     2.07    0.000    0.000        6        6     2014  GreenPeas_Hist_Centre.PRM
   Tot(5)       15        3     2015    105.4    305.0    666.0   401.00      0.0    100.2      5.2     24.6      0.0     54.5       81    138.6    142.3       62     0.000     0.000     0.000     0.000       75        0        0        0       30        3       23     6.232       71     45.1    2.812    3.308     1.46    0.000    0.000        6        6     2015  GreenPeas_Hist_Centre.PRM
   Tot(6)       15        3     2016    195.8    268.0    694.8   403.00      0.0    184.5     11.3      8.3      0.0     44.0       57    183.4    179.3       96     0.000     0.000     0.000     0.000       75        0        0        0       18        7        3     9.195       90     51.8    4.760    5.600     2.09    0.000    0.000        6        6     2016  GreenPeas_Hist_Centre.PRM
   Tot(7)       15        3     2017    205.3    293.5    652.8   405.00      0.0    182.5     22.8     49.4      0.0     51.3       72    182.7    185.5       88     0.000     0.000     0.000     0.000       75        0        0        0       26        1        6     7.826       91     50.6    3.963    4.662     1.69    0.000    0.000        6        6     2017  GreenPeas_Hist_Centre.PRM
   Tot(8)       15        3     2018    121.6    328.9    836.5   408.00      0.0    103.9     17.7     43.1      0.0     54.2       51    123.6    125.0       53     0.000     0.000     0.000     0.000       75        0        0        0       13       42       35     5.599       50     41.9    2.349    2.763     1.32    0.000    0.000        6        6     2018  GreenPeas_Hist_Centre.PRM
   Tot(9)       15        3     2019    147.3    275.1    690.5   410.00      0.0    144.1      3.2      0.0      0.0     39.1       50    165.6    162.8       89     0.000     0.000     0.000     0.000       75        0        0        0       30        2        6     7.720       88     51.3    3.962    4.661     1.94    0.000    0.000        6        6     2019  GreenPeas_Hist_Centre.PRM
