AquaCrop 7.0 (August 2022) - Output created on (date) : 27-10-2022   at (time) : 12:37:16

   Run:   1
   Day Month  Year   DAP Stage   WC(1.20)   Rain     Irri   Surf   Infilt   RO    Drain       CR    Zgwt       Ex       E     E/Ex     Trx       Tr  Tr/Trx    ETx      ET  ET/ETx      GD       Z     StExp  StSto  StSen StSalt StWeed   CC      CCw     StTr  Kc(Tr)     Trx       Tr      TrW  Tr/Trx   WP    Biomass     HI    Y(dry)  Y(fresh)  Brelative    WPet      Bin     Bout  WC(1.20) Wr(0.80)     Z       Wr    Wr(SAT)    Wr(FC)   Wr(exp)   Wr(sto)   Wr(sen)   Wr(PWP)    SaltIn    SaltOut   SaltUp   Salt(1.20)  SaltZ     Z       ECe    ECsw   StSalt  Zgwt    ECgw       WC01       WC 2       WC 3       WC 4       WC 5       WC 6       WC 7       WC 8       WC 9       WC10       WC11       WC12      ECe01      ECe 2      ECe 3      ECe 4      ECe 5      ECe 6      ECe 7      ECe 8      ECe 9      ECe10      ECe11      ECe12     Rain       ETo      Tmin      Tavg      Tmax      CO2
                                      mm      mm       mm     mm     mm     mm       mm       mm      m        mm       mm     %        mm       mm    %        mm      mm       %  degC-day     m       %      %      %      %      %      %       %       %       -        mm       mm       mm    %     g/m2    ton/ha      %    ton/ha   ton/ha       %       kg/m3   ton/ha   ton/ha      mm       mm       m       mm        mm        mm        mm        mm        mm         mm    ton/ha    ton/ha    ton/ha    ton/ha    ton/ha     m      dS/m    dS/m      %     m      dS/m       0.05       0.15       0.25       0.35       0.45       0.55       0.65       0.75       0.85       0.95       1.05       1.15       0.05       0.15       0.25       0.35       0.45       0.55       0.65       0.75       0.85       0.95       1.05       1.15       mm        mm     degC      degC      degC       ppm
    15     3  2011     1     1     369.8     0.0      0.0    0.0    0.0    0.0      0.0      0.0   -9.90      2.5      2.2     87      0.0      0.0   100      2.5     2.2      87      5.3    0.30     -9     -9     -9      0     -9     0.0     0.0      0    -9.00      0.0      0.0      0.0   100     0.0     0.000    -9.9    0.000    0.000      -9        0.00    0.000    0.000     369.8    245.8    0.30    90.8     138.0      93.0      85.8      67.4      71.4      45.0    0.000     0.000     0.000     0.000     0.000    0.30     0.00    0.00      0   -9.90   -9.00       28.8       31.0       31.0       31.0       31.0       31.0       31.0       31.0       31.0       31.0       31.0       31.0        0.0        0.0        0.0        0.0        0.0        0.0        0.0        0.0        0.0        0.0        0.0        0.0      0.0       2.3       2.3      10.3      18.4    391.63
    16     3  2011     2     1     368.3     0.0      0.0    0.0    0.0    0.0      0.0      0.0   -9.90      2.1      1.5     70      0.0      0.0   100      2.1     1.5      70      3.8    0.30     -9     -9     -9      0     -9     0.0     0.0      0    -9.00      0.0      0.0      0.0   100     0.0     0.000    -9.9    0.000    0.000      -9        0.00    0.000    0.000     368.3    244.3    0.30    89.3     138.0      93.0      85.8      66.8      71.4      45.0    0.000     0.000     0.000     0.000     0.000    0.30     0.00    0.00      0   -9.90   -9.00       27.3       31.0       31.0       31.0       31.0       31.0       31.0       31.0       31.0       31.0       31.0       31.0        0.0        0.0        0.0        0.0        0.0        0.0        0.0        0.0        0.0        0.0        0.0        0.0      0.0       1.9       3.7       8.8      13.9    391.63
    17     3  2011     3     1     370.8     4.0      0.0    0.0    4.0    0.0      0.0      0.0   -9.90      1.5      1.5    100      0.0      0.0   100      1.5     1.5     100      0.0    0.30     -9     -9     -9      0     -9     0.0     0.0      0    -9.00      0.0      0.0      0.0   100     0.0     0.000    -9.9    0.000    0.000      -9        0.00    0.000    0.000     370.8    246.8    0.30    91.8     138.0      93.0      85.8      66.0      71.4      45.0    0.000     0.000     0.000     0.000     0.000    0.30     0.00    0.00      0   -9.90   -9.00       29.8       31.0       31.0       31.0       31.0       31.0       31.0       31.0       31.0       31.0       31.0       31.0        0.0        0.0        0.0        0.0        0.0        0.0        0.0        0.0        0.0        0.0        0.0        0.0      4.0       1.4      -0.3       2.2       4.8    391.63
    18     3  2011     4     1     370.3     0.0      0.0    0.0    0.0    0.0      0.0      0.0   -9.90      0.4      0.4    100      0.0      0.0   100      0.4     0.4     100      0.0    0.30     -9     -9     -9      0     -9     0.0     0.0      0    -9.00      0.0      0.0      0.0   100     0.0     0.000    -9.9    0.000    0.000      -9        0.00    0.000    0.000     370.3    246.3    0.30    91.3     138.0      93.0      85.8      64.6      71.4      45.0    0.000     0.000     0.000     0.000     0.000    0.30     0.00    0.00      0   -9.90   -9.00       29.3       31.0       31.0       31.0       31.0       31.0       31.0       31.0       31.0       31.0       31.0       31.0        0.0        0.0        0.0        0.0        0.0        0.0        0.0        0.0        0.0        0.0        0.0        0.0      0.0       0.4      -1.5      -0.8       0.0    391.63
    19     3  2011     5     1     369.2     0.0      0.0    0.0    0.0    0.0      0.0      0.0   -9.90      1.1      1.1    100      0.0      0.0   100      1.1     1.1     100      0.0    0.30     -9     -9     -9      0     -9     0.0     0.0      0    -9.00      0.0      0.0      0.0   100     0.0     0.000    -9.9    0.000    0.000      -9        0.00    0.000    0.000     369.2    245.2    0.30    90.2     138.0      93.0      85.8      65.5      71.4      45.0    0.000     0.000     0.000     0.000     0.000    0.30     0.00    0.00      0   -9.90   -9.00       28.2       31.0       31.0       31.0       31.0       31.0       31.0       31.0       31.0       31.0       31.0       31.0        0.0        0.0        0.0        0.0        0.0        0.0        0.0        0.0        0.0        0.0        0.0        0.0      0.0       1.0      -0.2       2.1       4.5    391.63
    20     3  2011     6     1     368.1     0.0      0.0    0.0    0.0    0.0      0.0      0.0   -9.90      1.1      1.1    100      0.0      0.0   100      1.1     1.1     100      0.0    0.30     -9     -9     -9      0     -9     0.0     0.0      0    -9.00      0.0      0.0      0.0   100     0.0     0.000    -9.9    0.000    0.000      -9        0.00    0.000    0.000     368.1    244.1    0.30    89.1     138.0      93.0      85.8      65.5      71.4      45.0    0.000     0.000     0.000     0.000     0.000    0.30     0.00    0.00      0   -9.90   -9.00       27.1       31.0       31.0       31.0       31.0       31.0       31.0       31.0       31.0       31.0       31.0       31.0        0.0        0.0        0.0        0.0        0.0        0.0        0.0        0.0        0.0        0.0        0.0        0.0      0.0       1.0       0.7       2.9       5.1    391.63
    21     3  2011     7     1     366.3     0.0      0.0    0.0    0.0    0.0      0.0      0.0   -9.90      2.1      1.8     87      0.0      0.0   100      2.1     1.8      87      0.0    0.31     -9     -9     -9      0     -9     0.0     0.0      0    -9.00      0.0      0.0      0.0   100     0.0     0.000    -9.9    0.000    0.000      -9        0.00    0.000    0.000     366.3    242.3    0.31    89.1     140.6      94.7      87.4      68.0      72.7      45.8    0.000     0.000     0.000     0.000     0.000    0.31     0.00    0.00      0   -9.90   -9.00       25.3       31.0       31.0       31.0       31.0       31.0       31.0       31.0       31.0       31.0       31.0       31.0        0.0        0.0        0.0        0.0        0.0        0.0        0.0        0.0        0.0        0.0        0.0        0.0      0.0       1.9      -0.9       2.8       6.4    391.63
    22     3  2011     8     1     364.8     0.0      0.0    0.0    0.0    0.0      0.0      0.0   -9.90      2.2      1.5     70      0.0      0.0   100      2.2     1.5      70      0.0    0.33     -9     -9     -9      0     -9     0.0     0.0      0    -9.00      0.0      0.0      0.0   100     0.0     0.000    -9.9    0.000    0.000      -9        0.00    0.000    0.000     364.8    240.8    0.33    93.8     149.9     101.0      93.2      72.7      77.5      48.9    0.000     0.000     0.000     0.000     0.000    0.33     0.00    0.00      0   -9.90   -9.00       23.8       31.0       31.0       31.0       31.0       31.0       31.0       31.0       31.0       31.0       31.0       31.0        0.0        0.0        0.0        0.0        0.0        0.0        0.0        0.0        0.0        0.0        0.0        0.0      0.0       2.0      -1.9       3.5       8.9    391.63
    23     3  2011     9     1     363.2     0.0      0.0    0.0    0.0    0.0      0.0      0.0   -9.90      2.9      1.6     57      0.0      0.0   100      2.9     1.6      57      3.2    0.34     -9     -9     -9      0     -9     0.0     0.0      0    -9.00      0.0      0.0      0.0   100     0.0     0.000    -9.9    0.000    0.000      -9        0.00    0.000    0.000     363.2    239.2    0.34    97.9     158.4     106.8      98.5      77.9      82.0      51.7    0.000     0.000     0.000     0.000     0.000    0.34     0.00    0.00      0   -9.90   -9.00       22.2       31.0       31.0       31.0       31.0       31.0       31.0       31.0       31.0       31.0       31.0       31.0        0.0        0.0        0.0        0.0        0.0        0.0        0.0        0.0        0.0        0.0        0.0        0.0      0.0       2.6       4.0       8.2      12.5    391.63
    24     3  2011    10     2     361.4     0.0      0.0    0.0    0.0    0.0      0.0      0.0   -9.90      3.6      1.7     46      0.1      0.1   100      3.7     1.8      48      3.8    0.36     -9      0      0      0      0     6.9     6.9     73     0.13      0.1      0.1      0.1   100    21.1     0.007    -9.9    0.000    0.000     100        0.00    0.000    0.000     361.4    237.4    0.36   101.5     166.4     112.1     100.6      83.8      83.8      54.3    0.000     0.000     0.000     0.000     0.000    0.36     0.00    0.00      0   -9.90   -9.00       20.4       31.0       31.0       31.0       31.0       31.0       31.0       31.0       31.0       31.0       31.0       31.0        0.0        0.0        0.0        0.0        0.0        0.0        0.0        0.0        0.0        0.0        0.0        0.0      0.0       3.7       2.5       8.8      15.1    391.63
    25     3  2011    11     2     359.3     0.0      0.0    0.0    0.0    0.0      0.0      0.0   -9.90      4.1      1.5     37      0.6      0.6   100      4.7     2.1      44      8.1    0.38     -9      0      0      0      0     8.0     8.0      9     0.14      0.6      0.6      0.6   100    21.1     0.035    -9.9    0.000    0.000     100        0.00    0.000    0.000     359.3    235.3    0.38   104.5     174.0     117.2     106.6      88.7      88.7      56.7    0.000     0.000     0.000     0.000     0.000    0.38     0.00    0.00      0   -9.90   -9.00       18.3       31.0       31.0       31.0       31.0       31.0       31.0       31.0       31.0       31.0       31.0       31.0        0.0        0.0        0.0        0.0        0.0        0.0        0.0        0.0        0.0        0.0        0.0        0.0      0.0       4.3       8.2      13.1      18.0    391.63
    26     3  2011    12     2     358.2     0.0      0.0    0.0    0.0    0.0      0.0      0.0   -9.90      2.6      0.8     29      0.3      0.3   100      3.0     1.1      37      6.5    0.39      0      0      0      0      0     9.3     9.3     25     0.17      0.3      0.3      0.3   100    21.1     0.061    -9.9    0.000    0.000     100        0.00    0.000    0.000     358.2    234.2    0.39   108.3     181.2     122.1     107.4      89.4      89.4      59.1    0.000     0.000     0.000     0.000     0.000    0.39     0.00    0.00      0   -9.90   -9.00       17.2       31.0       31.0       31.0       31.0       31.0       31.0       31.0       31.0       31.0       31.0       31.0        0.0        0.0        0.0        0.0        0.0        0.0        0.0        0.0        0.0        0.0        0.0        0.0      0.0       2.8       4.8      11.5      18.1    391.63
    27     3  2011    13     2     366.1     8.5      0.0    0.0    8.5    0.0      0.0      0.0   -9.90      0.6      0.6    100      0.0      0.0   100      0.6     0.6     100      0.0    0.41      0     -9      0      0      0     9.3     9.3    100    -9.00      0.0      0.0      0.0   100    21.1     0.061    -9.9    0.000    0.000     100        0.00    0.000    0.000     366.1    242.1    0.41   120.8     188.1     126.7     106.4      88.6      88.6      61.3    0.000     0.000     0.000     0.000     0.000    0.41     0.00    0.00      0   -9.90   -9.00       25.1       31.0       31.0       31.0       31.0       31.0       31.0       31.0       31.0       31.0       31.0       31.0        0.0        0.0        0.0        0.0        0.0        0.0        0.0        0.0        0.0        0.0        0.0        0.0      8.5       0.7      -2.3       0.9       4.0    391.63
    28     3  2011    14     2     369.9     4.7      0.0    0.0    4.7    0.0      0.0      0.0   -9.90      0.8      0.8    100      0.0      0.0   100      0.8     0.8     100      0.0    0.42      0     -9      0      0      0     9.3     9.3    100    -9.00      0.0      0.0      0.0   100    21.1     0.061    -9.9    0.000    0.000     100        0.00    0.000    0.000     369.9    245.9    0.42   129.2     194.7     131.2     110.7      92.1      92.1      63.5    0.000     0.000     0.000     0.000     0.000    0.42     0.00    0.00      0   -9.90   -9.00       28.9       31.0       31.0       31.0       31.0       31.0       31.0       31.0       31.0       31.0       31.0       31.0        0.0        0.0        0.0        0.0        0.0        0.0        0.0        0.0        0.0        0.0        0.0        0.0      4.7       0.9      -1.7       2.9       7.4    391.63
    29     3  2011    15     2     368.4     0.0      0.0    0.0    0.0    0.0      0.0      0.0   -9.90      1.5      1.5    100      0.0      0.0   100      1.5     1.5     100      2.8    0.44      0      0      0      0      0    10.8    10.8     86     0.19      0.0      0.0      0.0   100    21.1     0.067    -9.9    0.000    0.000      97        0.00    0.000    0.000     368.4    244.4    0.44   132.0     201.2     135.6     116.2      96.7      96.7      65.6    0.000     0.000     0.000     0.000     0.000    0.44     0.00    0.00      0   -9.90   -9.00       27.4       31.0       31.0       31.0       31.0       31.0       31.0       31.0       31.0       31.0       31.0       31.0        0.0        0.0        0.0        0.0        0.0        0.0        0.0        0.0        0.0        0.0        0.0        0.0      0.0       1.6       4.3       7.8      11.4    391.63
    30     3  2011    16     2     366.4     0.0      0.0    0.0    0.0    0.0      0.0      0.0   -9.90      1.9      1.9    100      0.1      0.1   100      2.0     2.0     100      2.7    0.45      0      0      0      0      0    12.4    12.4     88     0.22      0.1      0.1      0.1   100    21.1     0.073    -9.9    0.000    0.000      95        0.00    0.000    0.000     366.4    242.4    0.45   134.2     207.4     139.8     121.4     101.1     101.1      67.6    0.000     0.000     0.000     0.000     0.000    0.45     0.00    0.00      0   -9.90   -9.00       25.4       31.0       31.0       31.0       31.0       31.0       31.0       31.0       31.0       31.0       31.0       31.0        0.0        0.0        0.0        0.0        0.0        0.0        0.0        0.0        0.0        0.0        0.0        0.0      0.0       2.2       0.8       7.7      14.5    391.63
    31     3  2011    17     2     364.2     0.0      0.0    0.0    0.0    0.0      0.0      0.0   -9.90      2.1      2.0     94      0.2      0.2   100      2.3     2.2      94      4.3    0.46      0      0      0      0      0    14.4    14.4     64     0.25      0.2      0.2      0.2   100    21.1     0.091    -9.9    0.000    0.000      91        0.00    0.000    0.000     364.2    240.2    0.46   136.1     213.5     143.9     125.8     104.7     104.7      69.6    0.000     0.000     0.000     0.000     0.000    0.46     0.00    0.00      0   -9.90   -9.00       23.2       31.0       31.0       31.0       31.0       31.0       31.0       31.0       31.0       31.0       31.0       31.0        0.0        0.0        0.0        0.0        0.0        0.0        0.0        0.0        0.0        0.0        0.0        0.0      0.0       2.5       2.6       9.3      16.0    391.63
     1     4  2011    18     2     362.5     0.0      0.0    0.0    0.0    0.0      0.0      0.0   -9.90      2.0      1.5     72      0.3      0.3   100      2.3     1.8      76      4.7    0.48      0      0      0      0      0    16.7    16.7     57     0.28      0.3      0.3      0.3   100    21.1     0.117    -9.9    0.000    0.000      87        0.00    0.000    0.000     362.5    238.5    0.48   138.3     219.4     147.9     129.3     107.6     107.6      71.5    0.000     0.000     0.000     0.000     0.000    0.48     0.00    0.00      0   -9.90   -9.00       21.5       31.0       31.0       31.0       31.0       31.0       31.0       31.0       31.0       31.0       31.0       31.0        0.0        0.0        0.0        0.0        0.0        0.0        0.0        0.0        0.0        0.0        0.0        0.0      0.0       2.5       3.3       9.7      16.1    391.63
     2     4  2011    19     2     360.8     0.0      0.0    0.0    0.0    0.0      0.0      0.0   -9.90      2.1      1.2     57      0.5      0.5   100      2.6     1.7      65      5.3    0.49      0      0      0      0      0    19.3    19.3     45     0.32      0.5      0.5      0.5   100    21.1     0.155    -9.9    0.000    0.000      85        0.00    0.000    0.000     360.8    236.8    0.49   140.5     225.2     151.8     133.2     110.9     110.9      73.4    0.000     0.000     0.000     0.000     0.000    0.49     0.00    0.00      0   -9.90   -9.00       19.8       31.0       31.0       31.0       31.0       31.0       31.0       31.0       31.0       31.0       31.0       31.0        0.0        0.0        0.0        0.0        0.0        0.0        0.0        0.0        0.0        0.0        0.0        0.0      0.0       2.7       4.7      10.3      15.9    391.63
     3     4  2011    20     2     362.5     3.3      0.0    0.0    3.3    0.0      0.0      0.0   -9.90      1.5      1.5    100      0.1      0.1   100      1.5     1.5     100      2.5    0.50      0      0      0      0      0    22.3    22.3     89     0.37      0.1      0.1      0.1   100    21.1     0.163    -9.9    0.000    0.000      84        0.00    0.000    0.000     362.5    238.5    0.50   146.1     230.8     155.6     134.5     112.0     112.0      75.3    0.000     0.000     0.000     0.000     0.000    0.50     0.00    0.00      0   -9.90   -9.00       21.5       31.0       31.0       31.0       31.0       31.0       31.0       31.0       31.0       31.0       31.0       31.0        0.0        0.0        0.0        0.0        0.0        0.0        0.0        0.0        0.0        0.0        0.0        0.0      3.3       2.0       4.7       7.5      10.3    391.63
     4     4  2011    21     2     362.1     0.0      0.0    0.0    0.0    0.0      0.0      0.0   -9.90      0.4      0.4    100      0.0      0.0   100      0.4     0.4     100      1.8    0.51      0      0      0      0      0    25.8    25.8     94     0.42      0.0      0.0      0.0   100    21.1     0.169    -9.9    0.000    0.000      84        0.00    0.000    0.000     362.1    238.1    0.51   149.4     236.4     159.3     133.4     111.1     111.1      77.1    0.000     0.000     0.000     0.000     0.000    0.51     0.00    0.00      0   -9.90   -9.00       21.1       31.0       31.0       31.0       31.0       31.0       31.0       31.0       31.0       31.0       31.0       31.0        0.0        0.0        0.0        0.0        0.0        0.0        0.0        0.0        0.0        0.0        0.0        0.0      0.0       0.6       5.2       6.8       8.4    391.63
     5     4  2011    22     2     361.3     0.0      0.0    0.0    0.0    0.0      0.0      0.0   -9.90      0.7      0.7    100      0.1      0.1   100      0.8     0.8     100      2.7    0.53      0      0      0      0      0    29.9    29.9     88     0.47      0.1      0.1      0.1   100    21.1     0.181    -9.9    0.000    0.000      84        0.00    0.000    0.000     361.3    237.3    0.53   152.2     241.8     162.9     138.4     115.2     115.2      78.8    0.000     0.000     0.000     0.000     0.000    0.53     0.00    0.00      0   -9.90   -9.00       20.3       31.0       31.0       31.0       31.0       31.0       31.0       31.0       31.0       31.0       31.0       31.0        0.0        0.0        0.0        0.0        0.0        0.0        0.0        0.0        0.0        0.0        0.0        0.0      0.0       1.2       5.0       7.7      10.3    391.63
     6     4  2011    23     2     359.7     0.0      0.0    0.0    0.0    0.0      0.0      0.0   -9.90      1.2      1.0     86      0.6      0.6   100      1.8     1.6      91      5.2    0.54      0      0      0      0      0    34.6    34.6     47     0.53      0.6      0.6      0.6   100    21.1     0.241    -9.9    0.000    0.000      83        0.00    0.000    0.000     359.7    235.7    0.54   154.2     247.1     166.5     144.3     120.1     120.1      80.6    0.000     0.000     0.000     0.000     0.000    0.54     0.00    0.00      0   -9.90   -9.00       18.7       31.0       31.0       31.0       31.0       31.0       31.0       31.0       31.0       31.0       31.0       31.0        0.0        0.0        0.0        0.0        0.0        0.0        0.0        0.0        0.0        0.0        0.0        0.0      0.0       2.1       6.7      10.2      13.7    391.63
     7     4  2011    24     2     360.3     2.6      0.0    0.0    2.6    0.0      0.0      0.0   -9.90      1.0      1.0    100      0.9      0.9   100      1.9     1.9     100      6.8    0.55      0      0      0      0      0    40.0    40.0     21     0.60      0.9      0.9      0.9   100    21.1     0.340    -9.9    0.000    0.000      82        0.00    0.000    0.000     360.3    236.3    0.55   158.4     252.4     170.1     147.0     122.4     122.4      82.3    0.000     0.000     0.000     0.000     0.000    0.55     0.00    0.00      0   -9.90   -9.00       19.3       31.0       31.0       31.0       31.0       31.0       31.0       31.0       31.0       31.0       31.0       31.0        0.0        0.0        0.0        0.0        0.0        0.0        0.0        0.0        0.0        0.0        0.0        0.0      2.6       2.0       6.8      11.8      16.7    391.63
     8     4  2011    25     2     359.5     2.3      0.0    0.0    2.3    0.0      0.0      0.0   -9.90      1.6      1.6    100      1.5      1.5   100      3.1     3.1     100      5.7    0.56      0      0      0      0      0    46.3    46.3     38     0.67      1.5      1.5      1.5   100    21.1     0.427    -9.9    0.000    0.000      83        0.00    0.000    0.000     359.5    235.5    0.56   161.1     257.5     173.5     155.7     129.6     129.6      84.0    0.000     0.000     0.000     0.000     0.000    0.56     0.00    0.00      0   -9.90   -9.00       18.5       31.0       31.0       31.0       31.0       31.0       31.0       31.0       31.0       31.0       31.0       31.0        0.0        0.0        0.0        0.0        0.0        0.0        0.0        0.0        0.0        0.0        0.0        0.0      2.3       3.7       7.5      10.7      13.8    391.63
     9     4  2011    26     2     361.1     3.0      0.0    0.0    3.0    0.0      0.0      0.0   -9.90      1.1      1.1    100      0.4      0.4   100      1.4     1.4     100      3.2    0.57      0      0      0      0      0    52.5    52.5     82     0.73      0.4      0.4      0.4   100    21.1     0.455    -9.9    0.000    0.000      83        0.00    0.000    0.000     361.1    237.1    0.57   166.1     262.6     177.0     156.1     129.9     129.9      85.6    0.000     0.000     0.000     0.000     0.000    0.57     0.00    0.00      0   -9.90   -9.00       20.1       31.0       31.0       31.0       31.0       31.0       31.0       31.0       31.0       31.0       31.0       31.0        0.0        0.0        0.0        0.0        0.0        0.0        0.0        0.0        0.0        0.0        0.0        0.0      3.0       2.9       5.9       8.2      10.4    391.63
    10     4  2011    27     2     362.4     2.1      0.0    0.0    2.1    0.0      0.0      0.0   -9.90      0.7      0.7    100      0.0      0.0   100      0.8     0.8     100      0.9    0.58      0      0      0      0      0    57.8    57.8     98     0.78      0.0      0.0      0.0   100    21.1     0.458    -9.9    0.000    0.000      83        0.00    0.000    0.000     362.4    238.4    0.58   170.8     267.6     180.3     157.3     130.9     130.9      87.3    0.000     0.000     0.000     0.000     0.000    0.58     0.00    0.00      0   -9.90   -9.00       21.4       31.0       31.0       31.0       31.0       31.0       31.0       31.0       31.0       31.0       31.0       31.0        0.0        0.0        0.0        0.0        0.0        0.0        0.0        0.0        0.0        0.0        0.0        0.0      2.1       2.4       3.3       5.9       8.5    391.63
    11     4  2011    28     2     364.0     2.1      0.0    0.0    2.1    0.0      0.0      0.0   -9.90      0.5      0.5    100      0.0      0.0   100      0.5     0.5     100      0.2    0.59      0      0      0      0      0    62.4    62.4    100    -9.00      0.0      0.0      0.0   100    21.1     0.459    -9.9    0.000    0.000      83        0.00    0.000    0.000     364.0    240.0    0.59   175.6     272.5     183.6     158.8     132.2     132.2      88.9    0.000     0.000     0.000     0.000     0.000    0.59     0.00    0.00      0   -9.90   -9.00       23.0       31.0       31.0       31.0       31.0       31.0       31.0       31.0       31.0       31.0       31.0       31.0        0.0        0.0        0.0        0.0        0.0        0.0        0.0        0.0        0.0        0.0        0.0        0.0      2.1       2.0       2.7       5.2       7.7    391.63
    12     4  2011    29     2     363.6     0.0      0.0    0.0    0.0    0.0      0.0      0.0   -9.90      0.3      0.3    100      0.0      0.0   100      0.3     0.3     100      0.0    0.60      0     -9      0      0      0    62.4    62.4    100    -9.00      0.0      0.0      0.0   100    21.1     0.459    -9.9    0.000    0.000      83        0.00    0.000    0.000     363.6    239.6    0.60   178.5     277.3     186.9     159.8     133.0     133.0      90.4    0.000     0.000     0.000     0.000     0.000    0.60     0.00    0.00      0   -9.90   -9.00       22.6       31.0       31.0       31.0       31.0       31.0       31.0       31.0       31.0       31.0       31.0       31.0        0.0        0.0        0.0        0.0        0.0        0.0        0.0        0.0        0.0        0.0        0.0        0.0      0.0       1.5       0.8       4.8       8.7    391.63
    13     4  2011    30     2     371.1     8.1      0.0    0.0    8.0    0.1      0.0      0.0   -9.90      0.3      0.3    100      0.3      0.3   100      0.6     0.6     100      3.9    0.61      0      0      0      0      0    66.4    66.4     71     0.86      0.3      0.3      0.3   100    21.1     0.511    -9.9    0.000    0.000      84        0.00    0.000    0.000     371.1    247.1    0.61   189.2     282.1     190.1     161.4     134.4     134.4      92.0    0.000     0.000     0.000     0.000     0.000    0.61     0.00    0.00      0   -9.90   -9.00       30.1       31.0       31.0       31.0       31.0       31.0       31.0       31.0       31.0       31.0       31.0       31.0        0.0        0.0        0.0        0.0        0.0        0.0        0.0        0.0        0.0        0.0        0.0        0.0      8.1       1.2       5.1       8.9      12.7    391.63
    14     4  2011    31     2     387.5    24.3      0.0    0.0   16.5    7.8      0.0      0.0   -9.90      0.1      0.1    100      0.0      0.0   100      0.1     0.1     100      2.2    0.62      0      0      0      0      0    69.8    69.8     91     0.89      0.0      0.0      0.0   100    21.1     0.527    -9.9    0.000    0.000      84        0.00    0.000    0.000     387.5    263.5    0.62   208.8     286.9     193.3     161.1     134.2     134.2      93.5    0.000     0.000     0.000     0.000     0.000    0.62     0.00    0.00      0   -9.90   -9.00       45.9       31.6       31.0       31.0       31.0       31.0       31.0       31.0       31.0       31.0       31.0       31.0        0.0        0.0        0.0        0.0        0.0        0.0        0.0        0.0        0.0        0.0        0.0        0.0     24.3       0.4       5.5       7.2       8.9    391.63
    15     4  2011    32     2     397.2    14.2      0.0    0.0   10.9    3.3      1.0      0.0   -9.90      0.1      0.1    100      0.1      0.1   100      0.2     0.2     100      2.2    0.63      0      0      0      0      0    72.8    72.8     92     0.92      0.1      0.1      0.1   100    21.1     0.543    -9.9    0.000    0.000      85        0.00    0.000    0.000     397.2    272.8    0.63   220.9     291.5     196.5     165.3     137.6     137.6      95.1    0.000     0.000     0.000     0.000     0.000    0.63     0.00    0.00      0   -9.90   -9.00       45.8       35.0       34.3       32.2       31.7       31.4       31.3       31.2       31.2       31.1       31.1       31.1        0.0        0.0        0.0        0.0        0.0        0.0        0.0        0.0        0.0        0.0        0.0        0.0     14.2       0.8       5.4       7.2       8.9    391.63
    16     4  2011    33     2     392.5     0.0      0.0    0.0    0.0    0.0      3.9      0.0   -9.90      0.4      0.4    100      0.4      0.4   100      0.8     0.8     100      3.0    0.64      0      0      0      0      0    75.3    75.3     85     0.94      0.4      0.4      0.4   100    21.1     0.574    -9.9    0.000    0.000      85        0.00    0.000    0.000     392.5    267.0    0.64   217.5     296.1     199.6     174.9     145.6     145.6      96.6    0.000     0.000     0.000     0.000     0.000    0.64     0.00    0.00      0   -9.90   -9.00       36.1       36.2       33.8       33.0       32.4       32.0       31.8       31.6       31.5       31.4       31.3       31.3        0.0        0.0        0.0        0.0        0.0        0.0        0.0        0.0        0.0        0.0        0.0        0.0      0.0       2.6       4.1       8.0      11.8    391.63
    17     4  2011    34     2     384.5     0.0      0.0    0.0    0.0    0.0      6.0      0.0   -9.90      0.4      0.4    100      1.6      1.6   100      2.0     2.0     100      5.1    0.65      0      0      0      0      0    77.5    77.5     49     0.95      1.6      1.6      1.6   100    21.1     0.676    -9.9    0.000    0.000      87        0.00    0.000    0.000     384.5    258.4    0.65   211.9     300.7     202.6     179.9     149.7     149.7      98.1    0.000     0.000     0.000     0.000     0.000    0.65     0.00    0.00      0   -9.90   -9.00       31.2       33.2       33.2       32.7       32.3       32.1       31.9       31.8       31.6       31.6       31.5       31.4        0.0        0.0        0.0        0.0        0.0        0.0        0.0        0.0        0.0        0.0        0.0        0.0      0.0       3.2       3.1      10.1      17.1    391.63
    18     4  2011    35     2     376.4     0.0      0.0    0.0    0.0    0.0      5.5      0.0   -9.90      0.4      0.4    100      2.3      2.3   100      2.7     2.7     100      6.3    0.66      0      0      0      0      0    79.5    79.5     27     0.97      2.3      2.3      2.3   100    21.1     0.826    -9.9    0.000    0.000      88        0.00    0.000    0.000     376.4    250.6    0.66   207.5     305.2     205.7     182.6     152.0     152.0      99.5    0.000     0.000     0.000     0.000     0.000    0.66     0.00    0.00      0   -9.90   -9.00       28.4       32.0       32.0       31.7       31.7       31.7       31.6       31.6       31.5       31.5       31.4       31.4        0.0        0.0        0.0        0.0        0.0        0.0        0.0        0.0        0.0        0.0        0.0        0.0      0.0       3.2       5.5      11.3      17.2    391.63
    19     4  2011    36     2     368.2     0.0      0.0    0.0    0.0    0.0      3.5      0.0   -9.90      0.5      0.5    100      4.2      4.2   100      4.7     4.7     100      9.4    0.67      0      0      0      0      0    81.1    81.1      3     0.98      4.2      4.2      4.2   100    21.1     1.026    -9.9    0.000    0.000      90        0.00    0.000    0.000     368.2    243.1    0.67   203.5     309.7     208.7     190.1     158.2     158.2     101.0    0.000     0.000     0.000     0.000     0.000    0.67     0.00    0.00      0   -9.90   -9.00       23.7       31.4       31.4       31.3       31.3       31.3       31.3       31.3       31.3       31.3       31.3       31.2        0.0        0.0        0.0        0.0        0.0        0.0        0.0        0.0        0.0        0.0        0.0        0.0      0.0       4.4       8.6      14.4      20.1    391.63
    20     4  2011    37     2     363.6     0.0      0.0    0.0    0.0    0.0      1.9      0.0   -9.90      0.5      0.5    100      2.3      2.3   100      2.8     2.8     100      5.1    0.68      0      0      0      0      0    82.5    82.5     50     0.99      2.3      2.3      2.3   100    21.1     1.131    -9.9    0.000    0.000      91        0.00    0.000    0.000     363.6    239.1    0.68   202.6     314.1     211.7     193.6     161.2     161.2     102.4    0.000     0.000     0.000     0.000     0.000    0.68     0.00    0.00      0   -9.90   -9.00       21.0       31.2       31.2       31.1       31.1       31.1       31.1       31.1       31.1       31.1       31.1       31.1        0.0        0.0        0.0        0.0        0.0        0.0        0.0        0.0        0.0        0.0        0.0        0.0      0.0       4.6       4.5      10.1      15.6    391.63
    21     4  2011    38     2     360.2     0.0      0.0    0.0    0.0    0.0      0.9      0.0   -9.90      0.4      0.4    100      2.1      2.1   100      2.5     2.5     100      5.0    0.69      0      0      0      0      0    83.8    83.8     52     1.00      2.1      2.1      2.1   100    21.1     1.232    -9.9    0.000    0.000      91        0.00    0.000    0.000     360.2    236.0    0.69   202.6     318.5     214.6     195.1     162.4     162.4     103.8    0.000     0.000     0.000     0.000     0.000    0.69     0.00    0.00      0   -9.90   -9.00       18.5       31.1       31.1       31.1       31.1       31.1       31.1       31.1       31.1       31.1       31.1       31.1        0.0        0.0        0.0        0.0        0.0        0.0        0.0        0.0        0.0        0.0        0.0        0.0      0.0       4.3       2.1      10.0      17.8    391.63
    22     4  2011    39     2     357.9     0.0      0.0    0.0    0.0    0.0      0.4      0.0   -9.90      0.3      0.3    100      1.7      1.7   100      2.0     2.0     100      4.9    0.70      0      0      0      0      0    84.8    84.8     53     1.01      1.7      1.7      1.7   100    21.1     1.332    -9.9    0.000    0.000      92        0.00    0.000    0.000     357.9    233.8    0.70   203.3     322.8     217.5     194.4     161.8     161.8     105.3    0.000     0.000     0.000     0.000     0.000    0.70     0.00    0.00      0   -9.90   -9.00       16.6       31.0       31.0       31.0       31.0       31.0       31.0       31.0       31.0       31.0       31.0       31.0        0.0        0.0        0.0        0.0        0.0        0.0        0.0        0.0        0.0        0.0        0.0        0.0      0.0       3.5       5.4       9.9      14.4    391.63
    23     4  2011    40     2     355.7     0.0      0.0    0.0    0.0    0.0      0.2      0.0   -9.90      0.3      0.3    100      1.7      1.7   100      2.0     2.0     100      4.8    0.71      0      0      0      0      0    85.8    85.8     55     1.02      1.7      1.7      1.7   100    21.1     1.429    -9.9    0.000    0.000      92        0.00    0.000    0.000     355.7    231.7    0.71   204.1     327.1     220.4     197.8     164.6     164.6     106.7    0.000     0.000     0.000     0.000     0.000    0.71     0.00    0.00      0   -9.90   -9.00       14.6       31.0       31.0       31.0       31.0       31.0       31.0       31.0       31.0       31.0       31.0       31.0        0.0        0.0        0.0        0.0        0.0        0.0        0.0        0.0        0.0        0.0        0.0        0.0      0.0       3.7       1.9       9.8      17.7    391.63
    24     4  2011    41     2     351.9     0.0      0.0    0.0    0.0    0.0      0.1      0.0   -9.90      0.3      0.3    100      3.5      3.5   100      3.8     3.8     100      6.9    0.72      0      0      0      0      0    86.6    86.6     19     1.02      3.5      3.5      3.5   100    21.1     1.603    -9.9    0.000    0.000      93        0.00    0.000    0.000     351.9    227.9    0.72   203.1     331.3     223.3     202.5     168.6     168.6     108.0    0.000     0.000     0.000     0.000     0.000    0.72     0.00    0.00      0   -9.90   -9.00       14.3       27.5       31.0       31.0       31.0       31.0       31.0       31.0       31.0       31.0       31.0       31.0        0.0        0.0        0.0        0.0        0.0        0.0        0.0        0.0        0.0        0.0        0.0        0.0      0.0       4.2       4.2      11.9      19.6    391.63
    25     4  2011    42     2     348.1     0.0      0.0    0.0    0.0    0.0      0.0      0.0   -9.90      0.3      0.3    100      3.5      3.5   100      3.8     3.8     100      7.6    0.73      0      0      0      0      0    87.2    87.2     13     1.03      3.5      3.5      3.5   100    21.1     1.793    -9.9    0.000    0.000      93        0.00    0.000    0.000     348.1    224.1    0.73   202.2     335.5     226.1     203.8     169.6     169.6     109.4    0.000     0.000     0.000     0.000     0.000    0.73     0.00    0.00      0   -9.90   -9.00       14.0       24.0       31.0       31.0       31.0       31.0       31.0       31.0       31.0       31.0       31.0       31.0        0.0        0.0        0.0        0.0        0.0        0.0        0.0        0.0        0.0        0.0        0.0        0.0      0.0       3.9       4.1      12.6      21.0    391.63
    26     4  2011    43     2     343.0     0.0      0.0    0.0    0.0    0.0      0.0      0.0   -9.90      0.3      0.3    100      4.7      4.7   100      5.0     5.0     100     10.1    0.74      1      0      0      0      0    87.8    87.8      0     1.03      4.7      4.7      4.7   100    21.1     2.010    -9.9    0.000    0.000      94        0.00    0.000    0.000     343.0    219.0    0.74   200.0     339.7     228.9     209.4     174.3     174.3     110.8    0.000     0.000     0.000     0.000     0.000    0.74     0.00    0.00      0   -9.90   -9.00       13.7       19.6       30.7       31.0       31.0       31.0       31.0       31.0       31.0       31.0       31.0       31.0        0.0        0.0        0.0        0.0        0.0        0.0        0.0        0.0        0.0        0.0        0.0        0.0      0.0       4.6       7.6      15.1      22.7    391.63
    27     4  2011    44     2     337.8     0.0      0.0    0.0    0.0    0.0      0.0      0.0   -9.90      0.3      0.3    100      5.0      5.0   100      5.2     5.2     100     10.9    0.75      3      0      0      0      0    88.3    88.3      0     1.03      5.0      5.0      5.0   100    21.1     2.228    -9.9    0.000    0.000      94        0.00    0.000    0.000     337.8    213.8    0.75   197.5     343.9     231.7     212.9     177.2     177.2     112.1    0.000     0.000     0.000     0.000     0.000    0.75     0.00    0.00      0   -9.90   -9.00       13.4       15.9       29.4       31.0       31.0       31.0       31.0       31.0       31.0       31.0       31.0       31.0        0.0        0.0        0.0        0.0        0.0        0.0        0.0        0.0        0.0        0.0        0.0        0.0      0.0       4.8       8.6      15.9      23.3    391.63
    28     4  2011    45     2     332.8     0.0      0.0    0.0    0.0    0.0      0.0      0.0   -9.90      0.3      0.3    100      4.8      4.8   100      5.0     5.0     100     10.5    0.76      5      0      0      0      0    88.7    88.7      0     1.04      4.8      4.8      4.8   100    21.1     2.447    -9.9    0.000    0.000      95        0.00    0.000    0.000     332.8    208.8    0.76   195.3     348.0     234.5     214.5     178.5     178.5     113.5    0.000     0.000     0.000     0.000     0.000    0.76     0.00    0.00      0   -9.90   -9.00       13.2       14.6       25.9       31.0       31.0       31.0       31.0       31.0       31.0       31.0       31.0       31.0        0.0        0.0        0.0        0.0        0.0        0.0        0.0        0.0        0.0        0.0        0.0        0.0      0.0       4.6       9.4      15.5      21.6    391.63
    29     4  2011    46     2     326.9     0.0      0.0    0.0    0.0    0.0      0.0      0.0   -9.90      0.3      0.3    100      5.6      5.6   100      5.9     5.9     100     11.6    0.77     11      0      0      0      0    89.1    89.1      0     1.04      5.6      5.6      5.6   100    21.1     2.667    -9.9    0.000    0.000      95        0.00    0.000    0.000     326.9    202.9    0.77   192.1     352.0     237.2     220.7     183.7     183.7     114.8    0.000     0.000     0.000     0.000     0.000    0.77     0.00    0.00      0   -9.90   -9.00       12.9       14.6       22.1       29.2       31.0       31.0       31.0       31.0       31.0       31.0       31.0       31.0        0.0        0.0        0.0        0.0        0.0        0.0        0.0        0.0        0.0        0.0        0.0        0.0      0.0       5.4      10.6      16.6      22.5    391.63
    30     4  2011    47     2     322.4     0.0      0.0    0.0    0.0    0.0      0.0      0.0   -9.90      0.2      0.2    100      4.3      4.3   100      4.5     4.5     100     11.1    0.77     11      0      0      0      0    89.4    89.4      0     1.04      4.3      4.3      4.3   100    21.1     2.886    -9.9    0.000    0.000      95        0.00    0.000    0.000     322.4    198.4    0.77   190.3     356.1     240.0     217.2     180.8     180.8     116.1    0.000     0.000     0.000     0.000     0.000    0.77     0.00    0.00      0   -9.90   -9.00       12.7       14.6       18.4       28.7       31.0       31.0       31.0       31.0       31.0       31.0       31.0       31.0        0.0        0.0        0.0        0.0        0.0        0.0        0.0        0.0        0.0        0.0        0.0        0.0      0.0       4.1       9.5      16.1      22.6    391.63
     1     5  2011    48     2     317.6     0.0      0.0    0.0    0.0    0.0      0.0      0.0   -9.90      0.2      0.2    100      4.6      4.6   100      4.8     4.8     100     10.5    0.78     15      0      0      0      0    89.6    89.6      0     1.04      4.6      4.6      4.6   100    21.1     3.107    -9.9    0.000    0.000      96        0.00    0.000    0.000     317.6    193.6    0.78   188.2     360.1     242.7     221.1     184.0     184.0     117.4    0.000     0.000     0.000     0.000     0.000    0.78     0.00    0.00      0   -9.90   -9.00       12.5       14.6       15.5       26.9       31.0       31.0       31.0       31.0       31.0       31.0       31.0       31.0        0.0        0.0        0.0        0.0        0.0        0.0        0.0        0.0        0.0        0.0        0.0        0.0      0.0       4.4       9.5      15.5      21.5    391.63
     2     5  2011    49     2     327.1    10.8      0.0    0.0   10.8    0.0      0.0      0.0   -9.90      0.1      0.1    100      1.2      1.2   100      1.3     1.3     100      6.9    0.79      3      0      0      0      0    89.8    89.8     19     1.04      1.2      1.2      1.2   100    21.1     3.286    -9.9    0.000    0.000      96        0.00    0.000    0.000     327.1    203.1    0.79   200.4     364.1     245.3     209.3     174.2     174.2     118.7    0.000     0.000     0.000     0.000     0.000    0.79     0.00    0.00      0   -9.90   -9.00       22.0       14.6       15.5       26.9       31.0       31.0       31.0       31.0       31.0       31.0       31.0       31.0        0.0        0.0        0.0        0.0        0.0        0.0        0.0        0.0        0.0        0.0        0.0        0.0     10.8       1.4       9.7      11.9      14.2    391.63
     3     5  2011    50     2     325.3     0.0      0.0    0.0    0.0    0.0      0.0      0.0   -9.90      0.1      0.1    100      1.8      1.8   100      1.8     1.8     100      7.6    0.80      4      0      0      0      0    90.1    90.1     12     1.05      1.8      1.8      1.8   100    21.1     3.481    -9.9    0.000    0.000      96        0.00    0.000    0.000     325.3    201.3    0.80   201.3     368.0     248.0     213.9     178.1     178.1     120.0    0.000     0.000     0.000     0.000     0.000    0.80     0.00    0.00      0   -9.90   -9.00       20.2       14.6       15.5       26.9       31.0       31.0       31.0       31.0       31.0       31.0       31.0       31.0        0.0        0.0        0.0        0.0        0.0        0.0        0.0        0.0        0.0        0.0        0.0        0.0      0.0       1.9       9.6      12.6      15.7    391.63
     4     5  2011    51     3     323.0     0.0      0.0    0.0    0.0    0.0      0.0      0.0   -9.90      0.1      0.1    100      2.2      2.2   100      2.3     2.3     100      7.5    0.80      6      0      0      0      0    91.2    91.2     13     1.05      2.2      2.2      2.2   100    21.1     3.675    -9.9    0.000    0.000      96        0.00    0.000    0.000     323.0    199.0    0.80   199.0     368.0     248.0     216.3     180.1     180.1     120.0    0.000     0.000     0.000     0.000     0.000    0.80     0.00    0.00      0   -9.90   -9.00       17.9       14.6       15.5       26.9       31.0       31.0       31.0       31.0       31.0       31.0       31.0       31.0        0.0        0.0        0.0        0.0        0.0        0.0        0.0        0.0        0.0        0.0        0.0        0.0      0.0       2.4       8.6      12.5      16.4    391.63
     5     5  2011    52     3     321.0     0.0      0.0    0.0    0.0    0.0      0.0      0.0   -9.90      0.1      0.1    100      1.9      1.9   100      2.0     2.0     100      5.2    0.80     -9      0      0      0      0    91.3    91.3     46     1.05      1.9      1.9      1.9   100    21.1     3.794    -9.9    0.000    0.000      96        0.00    0.000    0.000     321.0    197.0    0.80   197.0     368.0     248.0     220.6     183.7     183.7     120.0    0.000     0.000     0.000     0.000     0.000    0.80     0.00    0.00      0   -9.90   -9.00       15.9       14.6       15.5       26.9       31.0       31.0       31.0       31.0       31.0       31.0       31.0       31.0        0.0        0.0        0.0        0.0        0.0        0.0        0.0        0.0        0.0        0.0        0.0        0.0      0.0       3.3       7.2      10.2      13.3    391.63
     6     5  2011    53     3     319.0     0.0      0.0    0.0    0.0    0.0      0.0      0.0   -9.90      0.2      0.2    100      1.8      1.8   100      2.0     2.0     100      4.6    0.80     -9      0      0      0      0    91.4    91.4     59     1.05      1.8      1.8      1.8   100    19.6     3.879     1.6    0.062    0.073      96        0.06    0.000    0.000     319.0    195.0    0.80   195.0     368.0     248.0     225.0     187.2     187.2     120.0    0.000     0.000     0.000     0.000     0.000    0.80     0.00    0.00      0   -9.90   -9.00       14.5       14.6       14.9       26.9       31.0       31.0       31.0       31.0       31.0       31.0       31.0       31.0        0.0        0.0        0.0        0.0        0.0        0.0        0.0        0.0        0.0        0.0        0.0        0.0      0.0       4.2       5.5       9.6      13.7    391.63
     7     5  2011    54     3     327.0     9.1      0.0    0.0    9.1    0.0      0.0      0.0   -9.90      0.1      0.1    100      1.0      1.0   100      1.1     1.1     100      4.4    0.80     -9      0      0      0      0    91.5    91.5     63     1.05      1.0      1.0      1.0   100    18.8     3.953     2.0    0.079    0.093      97        0.07    0.000    0.000     327.0    203.0    0.80   203.0     368.0     248.0     216.8     180.5     180.5     120.0    0.000     0.000     0.000     0.000     0.000    0.80     0.00    0.00      0   -9.90   -9.00       22.5       14.6       14.9       26.9       31.0       31.0       31.0       31.0       31.0       31.0       31.0       31.0        0.0        0.0        0.0        0.0        0.0        0.0        0.0        0.0        0.0        0.0        0.0        0.0      9.1       2.5       5.7       9.4      13.1    391.63
     8     5  2011    55     3     330.2     5.4      0.0    0.0    5.4    0.0      0.0      0.0   -9.90      0.1      0.1    100      2.1      2.1   100      2.2     2.2     100      5.9    0.80     -9      0      0      0      0    91.6    91.6     33     1.05      2.1      2.1      2.1   100    18.1     4.080     2.5    0.102    0.120      97        0.09    0.000    0.000     330.2    206.2    0.80   206.2     368.0     248.0     219.2     182.5     182.5     120.0    0.000     0.000     0.000     0.000     0.000    0.80     0.00    0.00      0   -9.90   -9.00       25.7       14.6       14.9       26.9       31.0       31.0       31.0       31.0       31.0       31.0       31.0       31.0        0.0        0.0        0.0        0.0        0.0        0.0        0.0        0.0        0.0        0.0        0.0        0.0      5.4       3.0       6.3      10.9      15.6    391.63
     9     5  2011    56     3     325.4     0.0      0.0    0.0    0.0    0.0      0.0      0.0   -9.90      0.2      0.2    100      4.6      4.6   100      4.8     4.8     100     10.2    0.80     -9      0      0      0      0    91.6    91.6      0     1.04      4.6      4.6      4.6   100    17.3     4.260     3.1    0.132    0.155      97        0.11    0.000    0.000     325.4    201.4    0.80   201.4     368.0     248.0     225.9     188.0     188.0     120.0    0.000     0.000     0.000     0.000     0.000    0.80     0.00    0.00      0   -9.90   -9.00       21.0       14.6       14.9       26.9       31.0       31.0       31.0       31.0       31.0       31.0       31.0       31.0        0.0        0.0        0.0        0.0        0.0        0.0        0.0        0.0        0.0        0.0        0.0        0.0      0.0       4.4       9.7      15.2      20.8    391.63
    10     5  2011    57     3     327.0     6.3      0.0    0.0    6.3    0.0      0.0      0.0   -9.90      0.2      0.2    100      4.6      4.6   100      4.7     4.7     100     10.2    0.80     -9      0      0      0      0    91.7    91.7      0     1.04      4.6      4.6      4.6   100    16.5     4.432     3.9    0.171    0.201      97        0.14    0.000    0.000     327.0    203.0    0.80   203.0     368.0     248.0     225.9     188.0     188.0     120.0    0.000     0.000     0.000     0.000     0.000    0.80     0.00    0.00      0   -9.90   -9.00       22.5       14.6       14.9       26.9       31.0       31.0       31.0       31.0       31.0       31.0       31.0       31.0        0.0        0.0        0.0        0.0        0.0        0.0        0.0        0.0        0.0        0.0        0.0        0.0      6.3       4.4       9.7      15.2      20.8    391.63
    11     5  2011    58     3     331.9     7.8      0.0    0.0    7.8    0.0      0.0      0.0   -9.90      0.1      0.1    100      2.8      2.8   100      2.9     2.9     100      8.4    0.80     -9      0      0      0      0    91.7    91.7      7     1.04      2.8      2.8      2.8   100    15.7     4.583     4.8    0.218    0.257      97        0.18    0.000    0.000     331.9    207.9    0.80   207.9     368.0     248.0     218.7     182.1     182.1     120.0    0.000     0.000     0.000     0.000     0.000    0.80     0.00    0.00      0   -9.90   -9.00       27.4       14.6       14.9       26.9       31.0       31.0       31.0       31.0       31.0       31.0       31.0       31.0        0.0        0.0        0.0        0.0        0.0        0.0        0.0        0.0        0.0        0.0        0.0        0.0      7.8       2.9       9.1      13.4      17.6    391.63
    12     5  2011    59     3     328.2     0.0      0.0    0.0    0.0    0.0      0.0      0.0   -9.90      0.1      0.1    100      3.6      3.6   100      3.8     3.8     100     10.1    0.80     -9      0      0      0      0    91.8    91.8      0     1.04      3.6      3.6      3.6   100    14.9     4.738     5.9    0.278    0.327      97        0.22    0.000    0.000     328.2    204.2    0.80   204.2     368.0     248.0     221.6     184.5     184.5     120.0    0.000     0.000     0.000     0.000     0.000    0.80     0.00    0.00      0   -9.90   -9.00       23.7       14.6       14.9       26.9       31.0       31.0       31.0       31.0       31.0       31.0       31.0       31.0        0.0        0.0        0.0        0.0        0.0        0.0        0.0        0.0        0.0        0.0        0.0        0.0      0.0       3.5       9.9      15.1      20.3    391.63
    13     5  2011    60     3     323.3     0.0      0.0    0.0    0.0    0.0      0.0      0.0   -9.90      0.2      0.2    100      4.7      4.7   100      4.8     4.8     100     11.9    0.80     -9      0      0      0      0    91.8    91.8      0     1.03      4.7      4.7      4.7   100    14.2     4.885     7.2    0.351    0.413      97        0.26    0.000    0.000     323.3    199.3    0.80   199.3     368.0     248.0     226.4     188.4     188.4     120.0    0.000     0.000     0.000     0.000     0.000    0.80     0.00    0.00      0   -9.90   -9.00       18.9       14.6       14.9       26.9       31.0       31.0       31.0       31.0       31.0       31.0       31.0       31.0        0.0        0.0        0.0        0.0        0.0        0.0        0.0        0.0        0.0        0.0        0.0        0.0      0.0       4.5       9.5      16.9      24.3    391.63
    14     5  2011    61     3     318.2     0.0      0.0    0.0    0.0    0.0      0.0      0.0   -9.90      0.2      0.2    100      5.0      5.0   100      5.1     5.1     100     11.5    0.80     -9      0      0      0      0    91.8    91.8      0     1.03      5.0      5.0      5.0   100    13.4     5.024     8.8    0.440    0.517      97        0.32    0.000    0.000     318.2    194.2    0.80   194.2     368.0     248.0     227.8     189.6     189.6     120.0    0.000     0.000     0.000     0.000     0.000    0.80     0.00    0.00      0   -9.90   -9.00       14.8       14.6       14.9       25.8       31.0       31.0       31.0       31.0       31.0       31.0       31.0       31.0        0.0        0.0        0.0        0.0        0.0        0.0        0.0        0.0        0.0        0.0        0.0        0.0      0.0       4.8      11.6      16.5      21.4    391.63
    15     5  2011    62     3     313.9     0.0      0.0    0.0    0.0    0.0      0.0      0.0   -9.90      0.1      0.1    100      4.2      4.2   100      4.4     4.4     100     12.7    0.80     -9      0      0      0      0    91.8    91.8      0     1.03      4.2      4.2      4.2   100    12.7     5.154    10.6    0.545    0.641      97        0.38    0.000    0.000     313.9    189.9    0.80   189.9     368.0     248.0     224.5     186.8     186.8     120.0    0.000     0.000     0.000     0.000     0.000    0.80     0.00    0.00      0   -9.90   -9.00       14.7       14.6       14.9       22.5       30.1       31.0       31.0       31.0       31.0       31.0       31.0       31.0        0.0        0.0        0.0        0.0        0.0        0.0        0.0        0.0        0.0        0.0        0.0        0.0      0.0       4.1      11.4      17.7      24.0    391.63
    16     5  2011    63     3     308.9     0.0      0.0    0.0    0.0    0.0      0.0      0.0   -9.90      0.2      0.2    100      4.8      4.8   100      5.0     5.0     100     14.0    0.80     -9      0      0      0      0    91.9    91.9      0     1.03      4.8      4.8      4.8   100    12.7     5.284    12.5    0.658    0.774      97        0.45    0.000    0.000     308.9    184.9    0.80   184.9     368.0     248.0     227.4     189.2     189.2     120.0    0.000     0.000     0.000     0.000     0.000    0.80     0.00    0.00      0   -9.90   -9.00       14.5       14.6       14.9       19.3       28.5       31.0       31.0       31.0       31.0       31.0       31.0       31.0        0.0        0.0        0.0        0.0        0.0        0.0        0.0        0.0        0.0        0.0        0.0        0.0      0.0       4.7      12.3      19.0      25.7    391.63
    17     5  2011    64     3     306.6     0.0      0.0    0.0    0.0    0.0      0.0      0.0   -9.90      0.1      0.1    100      2.2      2.2   100      2.2     2.2     100     10.7    0.80     -9      0      0      0      0    91.9    91.9      0     1.02      2.2      2.2      2.2   100    12.7     5.414    14.3    0.776    0.914      97        0.52    0.000    0.000     306.6    182.6    0.80   182.6     368.0     248.0     214.9     178.9     178.9     120.0    0.000     0.000     0.000     0.000     0.000    0.80     0.00    0.00      0   -9.90   -9.00       14.5       14.6       14.9       17.2       28.5       31.0       31.0       31.0       31.0       31.0       31.0       31.0        0.0        0.0        0.0        0.0        0.0        0.0        0.0        0.0        0.0        0.0        0.0        0.0      0.0       2.1      11.5      15.7      19.9    391.63
    18     5  2011    65     3     302.6     0.0      0.0    0.0    0.0    0.0      0.0      0.0   -9.90      0.1      0.1    100      4.2      3.9    94      4.3     4.1      94     12.8    0.80     -9      6      1      0      0    91.9    91.9      0     1.02      4.2      3.9      3.9    94    12.7     5.535    16.2    0.897    1.056      97        0.58    0.000    0.000     302.6    178.6    0.80   178.6     368.0     248.0     224.5     186.8     186.8     120.0    0.000     0.000     0.000     0.000     0.000    0.80     0.00    0.00      0   -9.90   -9.00       14.3       14.6       14.9       15.3       26.4       31.0       31.0       31.0       31.0       31.0       31.0       31.0        0.0        0.0        0.0        0.0        0.0        0.0        0.0        0.0        0.0        0.0        0.0        0.0      0.0       4.1      10.3      17.8      25.3    391.63
    19     5  2011    66     3     298.1     0.0      0.0    0.0    0.0    0.0      0.0      0.0   -9.90      0.2      0.2    100      5.2      4.3    83      5.4     4.5      83     14.3    0.80     -9     17      4      0      0    91.8    91.8      0     1.02      5.2      4.3      4.3    83    12.7     5.642    18.1    1.019    1.199      97        0.65    0.000    0.000     298.1    174.1    0.80   174.1     368.0     248.0     229.3     190.8     197.7     120.0    0.000     0.000     0.000     0.000     0.000    0.80     0.00    0.00      0   -9.90   -9.00       14.1       14.6       14.9       15.0       23.7       29.7       31.0       31.0       31.0       31.0       31.0       31.0        0.0        0.0        0.0        0.0        0.0        0.0        0.0        0.0        0.0        0.0        0.0        0.0      0.0       5.1      12.7      19.3      25.9    391.63
    20     5  2011    67     3     296.7     2.8      0.0    0.0    2.8    0.0      0.0      0.0   -9.90      0.2      0.2    100      5.0      4.0    81      5.1     4.2      82     15.2    0.80     -9     19      4      0      0    91.8    91.8      0     1.02      5.0      4.0      4.0    81    12.7     5.746    19.9    1.145    1.347      96        0.71    0.000    0.000     296.7    172.7    0.80   172.7     368.0     248.0     228.3     190.0     197.0     120.0    0.000     0.000     0.000     0.000     0.000    0.80     0.00    0.00      0   -9.90   -9.00       14.3       14.6       14.9       15.0       22.1       29.7       31.0       31.0       31.0       31.0       31.0       31.0        0.0        0.0        0.0        0.0        0.0        0.0        0.0        0.0        0.0        0.0        0.0        0.0      2.8       4.9      14.5      20.2      26.0    391.63
    21     5  2011    68     3     292.6     0.0      0.0    0.0    0.0    0.0      0.0      0.0   -9.90      0.2      0.2    100      5.4      3.9    73      5.5     4.1      74     16.2    0.80     -9     27      6      0      0    91.7    91.7      0     1.01      5.4      3.9      3.9    73    12.7     5.840    21.8    1.271    1.495      96        0.76    0.000    0.000     292.6    168.6    0.80   168.6     368.0     248.0     230.2     191.6     198.4     120.0    0.000     0.000     0.000     0.000     0.000    0.80     0.00    0.00      0   -9.90   -9.00       14.1       14.6       14.9       15.0       19.6       28.4       31.0       31.0       31.0       31.0       31.0       31.0        0.0        0.0        0.0        0.0        0.0        0.0        0.0        0.0        0.0        0.0        0.0        0.0      0.0       5.3      15.1      21.2      27.4    391.63
    22     5  2011    69     4     289.0     0.0      0.0    0.0    0.0    0.0      0.0      0.0   -9.90      0.2      0.2    100      4.8      3.4    70      5.0     3.5      71     15.1    0.80     -9     30      8      0      0    91.7    91.7      0     1.01      4.8      3.4      3.4    70    12.7     5.929    23.6    1.398    1.645      95        0.82    0.000    0.000     289.0    165.0    0.80   165.0     368.0     248.0     227.8     189.6     196.6     120.0    0.000     0.000     0.000     0.000     0.000    0.80     0.00    0.00      0   -9.90   -9.00       14.0       14.6       14.9       15.0       17.3       27.3       31.0       31.0       31.0       31.0       31.0       31.0        0.0        0.0        0.0        0.0        0.0        0.0        0.0        0.0        0.0        0.0        0.0        0.0      0.0       4.8      13.1      20.1      27.2    391.63
    23     5  2011    70     4     285.6     0.0      0.0    0.0    0.0    0.0      0.0      0.0   -9.90      0.2      0.2    100      5.1      3.2    63      5.3     3.4      65     16.4    0.80     -9     37     10      0      0    91.6    91.6      0     1.00      5.1      3.2      3.2    63    12.7     6.010    25.4    1.526    1.795      95        0.88    0.000    0.000     285.6    161.6    0.80   161.6     368.0     248.0     229.3     190.8     197.7     120.0    0.000     0.000     0.000     0.000     0.000    0.80     0.00    0.00      0   -9.90   -9.00       13.8       14.6       14.9       15.0       15.8       25.6       31.0       31.0       31.0       31.0       31.0       31.0        0.0        0.0        0.0        0.0        0.0        0.0        0.0        0.0        0.0        0.0        0.0        0.0      0.0       5.1      14.0      21.4      28.8    391.63
    24     5  2011    71     4     282.5     0.0      0.0    0.0    0.0    0.0      0.0      0.0   -9.90      0.2      0.2    100      4.9      2.9    59      5.1     3.1      61     17.1    0.80     -9     41     12      0      0    91.5    91.5      0     1.00      4.9      2.9      2.9    59    12.7     6.085    27.2    1.653    1.945      94        0.94    0.000    0.000     282.5    158.5    0.80   158.5     368.0     248.0     228.3     190.0     197.0     120.0    0.000     0.000     0.000     0.000     0.000    0.80     0.00    0.00      0   -9.90   -9.00       13.6       14.6       14.9       15.0       15.1       23.5       30.9       31.0       31.0       31.0       31.0       31.0        0.0        0.0        0.0        0.0        0.0        0.0        0.0        0.0        0.0        0.0        0.0        0.0      0.0       4.9      15.7      22.1      28.6    391.63
    25     5  2011    72     4     282.0     2.6      0.0    0.0    2.6    0.0      0.0      0.0   -9.90      0.2      0.2    100      5.0      2.9    58      5.2     3.1      60     16.6    0.80     -9     42     13      0      0    91.4    91.4      0     0.99      5.0      2.9      2.9    58    12.7     6.158    29.0    1.783    2.098      93        0.99    0.000    0.000     282.0    158.0    0.80   158.0     368.0     248.0     228.8     190.4     197.3     120.0    0.000     0.000     0.000     0.000     0.000    0.80     0.00    0.00      0   -9.90   -9.00       14.4       14.6       14.9       15.0       15.0       22.2       30.9       31.0       31.0       31.0       31.0       31.0        0.0        0.0        0.0        0.0        0.0        0.0        0.0        0.0        0.0        0.0        0.0        0.0      2.6       5.0      15.0      21.6      28.3    391.63
    26     5  2011    73     4     279.0     0.0      0.0    0.0    0.0    0.0      0.0      0.0   -9.90      0.2      0.2    100      5.3      2.8    53      5.6     3.0      54     11.5    0.80     -9     47     16      0      0    91.3    91.3      0     0.99      5.3      2.8      2.8    53    12.7     6.224    30.7    1.912    2.249      93        1.05    0.000    0.000     279.0    155.0    0.80   155.0     368.0     248.0     230.7     192.0     198.7     120.0    0.000     0.000     0.000     0.000     0.000    0.80     0.00    0.00      0   -9.90   -9.00       14.2       14.6       14.9       15.0       15.0       20.2       30.1       31.0       31.0       31.0       31.0       31.0        0.0        0.0        0.0        0.0        0.0        0.0        0.0        0.0        0.0        0.0        0.0        0.0      0.0       5.4      11.2      16.5      21.9    391.63
    27     5  2011    74     4     276.1     0.0      0.0    0.0    0.0    0.0      0.0      0.0   -9.90      0.2      0.2    100      5.5      2.6    48      5.7     2.9      50     11.9    0.80     -9     52     20      0      0    91.1    91.1      0     0.99      5.5      2.6      2.6    48    12.7     6.284    32.4    2.039    2.399      92        1.10    0.000    0.000     276.1    152.1    0.80   152.1     368.0     248.0     231.7     192.8     199.4     120.0    0.000     0.000     0.000     0.000     0.000    0.80     0.00    0.00      0   -9.90   -9.00       14.0       14.6       14.9       15.0       15.0       18.4       29.2       31.0       31.0       31.0       31.0       31.0        0.0        0.0        0.0        0.0        0.0        0.0        0.0        0.0        0.0        0.0        0.0        0.0      0.0       5.6       9.9      16.9      24.0    391.63
    28     5  2011    75     4     273.5     0.0      0.0    0.0    0.0    0.0      0.0      0.0   -9.90      0.2      0.2    100      5.6      2.4    44      5.8     2.7      46     12.6    0.80     -9     56     23      0      0    91.0    91.0      0     0.98      5.6      2.4      2.4    44    12.7     6.338    34.2    2.165    2.547      91        1.15    0.000    0.000     273.5    149.5    0.80   149.5     368.0     248.0     232.2     193.2     199.8     120.0    0.000     0.000     0.000     0.000     0.000    0.80     0.00    0.00      0   -9.90   -9.00       13.8       14.6       14.9       15.0       15.0       16.9       28.3       31.0       31.0       31.0       31.0       31.0        0.0        0.0        0.0        0.0        0.0        0.0        0.0        0.0        0.0        0.0        0.0        0.0      0.0       5.7       9.9      17.6      25.2    391.63
    29     5  2011    76     4     271.0     0.0      0.0    0.0    0.0    0.0      0.0      0.0   -9.90      0.2      0.2    100      5.6      2.2    40      5.8     2.5      43     14.2    0.80     -9     60     26      0      0    90.8    90.8      0     0.97      5.6      2.2      2.2    40    12.7     6.388    35.8    2.289    2.693      90        1.20    0.000    0.000     271.0    147.0    0.80   147.0     368.0     248.0     232.2     193.2     199.8     120.0    0.000     0.000     0.000     0.000     0.000    0.80     0.00    0.00      0   -9.90   -9.00       13.5       14.6       14.9       15.0       15.0       15.9       27.1       31.0       31.0       31.0       31.0       31.0        0.0        0.0        0.0        0.0        0.0        0.0        0.0        0.0        0.0        0.0        0.0        0.0      0.0       5.7      10.7      19.2      27.7    391.63
    30     5  2011    77     4     268.6     0.0      0.0    0.0    0.0    0.0      0.0      0.0   -9.90      0.3      0.3    100      6.1      2.2    36      6.4     2.4      38     17.4    0.80     -9     64     31      0      0    90.7    90.7      0     0.97      6.1      2.2      2.2    36    12.7     6.431    37.5    2.411    2.836      89        1.25    0.000    0.000     268.6    144.6    0.80   144.6     368.0     248.0     235.0     195.6     201.8     120.0    0.000     0.000     0.000     0.000     0.000    0.80     0.00    0.00      0   -9.90   -9.00       13.3       14.6       14.9       15.0       15.0       15.3       25.6       30.9       31.0       31.0       31.0       31.0        0.0        0.0        0.0        0.0        0.0        0.0        0.0        0.0        0.0        0.0        0.0        0.0      0.0       6.3      15.4      22.4      29.3    391.63
    31     5  2011    78     4     269.3     2.8      0.0    0.0    2.8    0.0      0.0      0.0   -9.90      0.2      0.2    100      4.8      1.9    39      5.0     2.1      41     16.6    0.80     -9     61     28      0      0    90.5    90.5      0     0.96      4.8      1.9      1.9    39    12.7     6.479    39.2    2.537    2.984      88        1.30    0.000    0.000     269.3    145.3    0.80   145.3     368.0     248.0     228.8     190.4     197.3     120.0    0.000     0.000     0.000     0.000     0.000    0.80     0.00    0.00      0   -9.90   -9.00       14.5       14.6       14.9       15.0       15.0       15.1       25.3       30.9       31.0       31.0       31.0       31.0        0.0        0.0        0.0        0.0        0.0        0.0        0.0        0.0        0.0        0.0        0.0        0.0      2.8       5.0      16.0      21.6      27.1    391.63
     1     6  2011    79     4     272.1     5.9      0.0    0.0    5.9    0.0      0.0      0.0   -9.90      0.2      0.2    100      4.8      2.8    59      5.0     3.0      61     16.2    0.80     -9     41     12      0      0    90.4    90.4      0     0.96      4.8      2.8      2.8    59    12.7     6.550    40.8    2.676    3.148      88        1.35    0.000    0.000     272.1    148.1    0.80   148.1     368.0     248.0     228.8     190.4     197.3     120.0    0.000     0.000     0.000     0.000     0.000    0.80     0.00    0.00      0   -9.90   -9.00       17.3       14.6       14.9       15.0       15.0       15.1       25.3       30.9       31.0       31.0       31.0       31.0        0.0        0.0        0.0        0.0        0.0        0.0        0.0        0.0        0.0        0.0        0.0        0.0      5.9       5.0      14.0      21.2      28.4    391.63
     2     6  2011    80     4     269.9     0.0      0.0    0.0    0.0    0.0      0.0      0.0   -9.90      0.2      0.2    100      5.1      2.0    39      5.3     2.2      42     17.9    0.80     -9     61     27      0      0    90.2    90.2      0     0.95      5.1      2.0      2.0    39    12.7     6.597    42.5    2.805    3.300      87        1.40    0.000    0.000     269.9    145.9    0.80   145.9     368.0     248.0     230.2     191.6     198.4     120.0    0.000     0.000     0.000     0.000     0.000    0.80     0.00    0.00      0   -9.90   -9.00       15.1       14.6       14.9       15.0       15.0       15.1       25.3       30.9       31.0       31.0       31.0       31.0        0.0        0.0        0.0        0.0        0.0        0.0        0.0        0.0        0.0        0.0        0.0        0.0      0.0       5.3      17.5      22.9      28.4    391.63
     3     6  2011    81     4     267.5     0.0      0.0    0.0    0.0    0.0      0.0      0.0   -9.90      0.3      0.3    100      6.4      2.1    33      6.7     2.4      36     18.5    0.80     -9     67     33      0      0    90.1    90.1      0     0.95      6.4      2.1      2.1    33    12.7     6.637    44.1    2.929    3.446      86        1.44    0.000    0.000     267.5    143.5    0.80   143.5     368.0     248.0     237.0     197.1     203.2     120.0    0.000     0.000     0.000     0.000     0.000    0.80     0.00    0.00      0   -9.90   -9.00       14.8       14.6       14.9       15.0       15.0       15.0       23.8       30.3       31.0       31.0       31.0       31.0        0.0        0.0        0.0        0.0        0.0        0.0        0.0        0.0        0.0        0.0        0.0        0.0      0.0       6.7      17.3      23.5      29.7    391.63
     4     6  2011    82     4     267.7     2.5      0.0    0.0    2.5    0.0      0.0      0.0   -9.90      0.3      0.3    100      5.7      2.0    35      5.9     2.3      38     18.1    0.80     -9     65     32      0      0    89.9    89.9      0     0.94      5.7      2.0      2.0    35    12.7     6.679    45.8    3.056    3.595      85        1.49    0.000    0.000     267.7    143.7    0.80   143.7     368.0     248.0     233.6     194.4     200.8     120.0    0.000     0.000     0.000     0.000     0.000    0.80     0.00    0.00      0   -9.90   -9.00       15.1       14.6       14.9       15.0       15.0       15.0       23.8       30.3       31.0       31.0       31.0       31.0        0.0        0.0        0.0        0.0        0.0        0.0        0.0        0.0        0.0        0.0        0.0        0.0      2.5       6.0      16.4      23.1      29.9    391.63
     5     6  2011    83     4     265.7     0.0      0.0    0.0    0.0    0.0      0.0      0.0   -9.90      0.3      0.3    100      5.6      1.8    32      5.9     2.1      35     16.2    0.80     -9     68     35      0      0    89.7    89.7      0     0.94      5.6      1.8      1.8    32    12.7     6.716    47.4    3.181    3.742      84        1.54    0.000    0.000     265.7    141.7    0.80   141.7     368.0     248.0     233.6     194.4     200.8     120.0    0.000     0.000     0.000     0.000     0.000    0.80     0.00    0.00      0   -9.90   -9.00       14.8       14.6       14.9       15.0       15.0       15.0       22.3       30.1       31.0       31.0       31.0       31.0        0.0        0.0        0.0        0.0        0.0        0.0        0.0        0.0        0.0        0.0        0.0        0.0      0.0       6.0      14.5      21.2      27.9    391.63
     6     6  2011    84     4     263.7     0.0      0.0    0.0    0.0    0.0      0.0      0.0   -9.90      0.3      0.3    100      5.9      1.7    28      6.2     2.0      32     16.6    0.80     -9     72     39      0      0    89.5    89.5      0     0.93      5.9      1.7      1.7    28    12.7     6.750    48.9    3.302    3.885      83        1.58    0.000    0.000     263.7    139.7    0.80   139.7     368.0     248.0     235.0     195.6     201.8     120.0    0.000     0.000     0.000     0.000     0.000    0.80     0.00    0.00      0   -9.90   -9.00       14.4       14.6       14.9       15.0       15.0       15.0       20.9       29.8       31.0       31.0       31.0       31.0        0.0        0.0        0.0        0.0        0.0        0.0        0.0        0.0        0.0        0.0        0.0        0.0      0.0       6.3      14.3      21.6      28.9    391.63

   Run:   2
   Day Month  Year   DAP Stage   WC(1.20)   Rain     Irri   Surf   Infilt   RO    Drain       CR    Zgwt       Ex       E     E/Ex     Trx       Tr  Tr/Trx    ETx      ET  ET/ETx      GD       Z     StExp  StSto  StSen StSalt StWeed   CC      CCw     StTr  Kc(Tr)     Trx       Tr      TrW  Tr/Trx   WP    Biomass     HI    Y(dry)  Y(fresh)  Brelative    WPet      Bin     Bout  WC(1.20) Wr(0.80)     Z       Wr    Wr(SAT)    Wr(FC)   Wr(exp)   Wr(sto)   Wr(sen)   Wr(PWP)    SaltIn    SaltOut   SaltUp   Salt(1.20)  SaltZ     Z       ECe    ECsw   StSalt  Zgwt    ECgw       WC01       WC 2       WC 3       WC 4       WC 5       WC 6       WC 7       WC 8       WC 9       WC10       WC11       WC12      ECe01      ECe 2      ECe 3      ECe 4      ECe 5      ECe 6      ECe 7      ECe 8      ECe 9      ECe10      ECe11      ECe12     Rain       ETo      Tmin      Tavg      Tmax      CO2
                                      mm      mm       mm     mm     mm     mm       mm       mm      m        mm       mm     %        mm       mm    %        mm      mm       %  degC-day     m       %      %      %      %      %      %       %       %       -        mm       mm       mm    %     g/m2    ton/ha      %    ton/ha   ton/ha       %       kg/m3   ton/ha   ton/ha      mm       mm       m       mm        mm        mm        mm        mm        mm         mm    ton/ha    ton/ha    ton/ha    ton/ha    ton/ha     m      dS/m    dS/m      %     m      dS/m       0.05       0.15       0.25       0.35       0.45       0.55       0.65       0.75       0.85       0.95       1.05       1.15       0.05       0.15       0.25       0.35       0.45       0.55       0.65       0.75       0.85       0.95       1.05       1.15       mm        mm     degC      degC      degC       ppm
    15     3  2012     1     1     370.0     0.0      0.0    0.0    0.0    0.0      0.0      0.0   -9.90      2.3      2.0     88      0.0      0.0   100      2.3     2.0      88      0.0    0.30     -9     -9     -9      0     -9     0.0     0.0      0    -9.00      0.0      0.0      0.0   100     0.0     0.000    -9.9    0.000    0.000      -9        0.00    0.000    0.000     370.0    246.0    0.30    91.0     138.0      93.0      85.8      67.1      71.4      45.0    0.000     0.000     0.000     0.000     0.000    0.30     0.00    0.00      0   -9.90   -9.00       29.0       31.0       31.0       31.0       31.0       31.0       31.0       31.0       31.0       31.0       31.0       31.0        0.0        0.0        0.0        0.0        0.0        0.0        0.0        0.0        0.0        0.0        0.0        0.0      0.0       2.1      -1.0       2.0       4.9    393.82
[...]
    16     5  2019    63     3     307.9     0.7      0.0    0.0    0.7    0.0      0.0      0.0   -9.90      0.1      0.1    100      3.2      3.2   100      3.3     3.3     100     12.6    0.80     -9      0      0      0      0    91.9    91.9      0     1.02      3.2      3.2      3.2   100    13.2     5.574    12.6    0.702    0.826      93        0.53    0.000    0.000     307.9    183.9    0.80   183.9     368.0     248.0     219.7     182.9     182.9     120.0    0.000     0.000     0.000     0.000     0.000    0.80     0.00    0.00      0   -9.90   -9.00       14.7       14.8       14.9       16.9       29.6       31.0       31.0       31.0       31.0       31.0       31.0       31.0        0.0        0.0        0.0        0.0        0.0        0.0        0.0        0.0        0.0        0.0        0.0        0.0      0.7       3.1      13.8      17.6      21.3    410.00
    17     5  2019    64     3     304.2     0.7      0.0    0.0    0.7    0.0      0.0      0.0   -9.90      0.2      0.2    100      4.6      4.3    94      4.7     4.5      94     15.2    0.80     -9      6      1      0      0    91.9    91.9      0     1.02      4.6      4.3      4.3    94    13.2     5.701    14.5    0.826    0.971      93        0.60    0.000    0.000     304.2    180.2    0.80   180.2     368.0     248.0     226.4     188.4     188.4     120.0    0.000     0.000     0.000     0.000     0.000    0.80     0.00    0.00      0   -9.90   -9.00       14.8       14.8       14.9       15.2       27.4       31.0       31.0       31.0       31.0       31.0       31.0       31.0        0.0        0.0        0.0        0.0        0.0        0.0        0.0        0.0        0.0        0.0        0.0        0.0      0.7       4.5      12.4      20.2      28.1    410.00
    18     5  2019    65     3     305.4     5.4      0.0    0.0    5.4    0.0      0.0      0.0   -9.90      0.1      0.1    100      4.1      4.0    98      4.2     4.1      99     16.2    0.80     -9      2      0      0      0    91.9    91.9      0     1.02      4.1      4.0      4.0    98    13.2     5.833    16.4    0.955    1.124      93        0.67    0.000    0.000     305.4    181.4    0.80   181.4     368.0     248.0     224.0     186.4     193.8     120.0    0.000     0.000     0.000     0.000     0.000    0.80     0.00    0.00      0   -9.90   -9.00       16.1       14.8       14.9       15.2       27.4       31.0       31.0       31.0       31.0       31.0       31.0       31.0        0.0        0.0        0.0        0.0        0.0        0.0        0.0        0.0        0.0        0.0        0.0        0.0      5.4       4.0      15.8      21.2      26.7    410.00
    19     5  2019    66     3     302.4     0.8      0.0    0.0    0.8    0.0      0.0      0.0   -9.90      0.1      0.1    100      4.0      3.7    94      4.1     3.9      94     15.9    0.80     -9      6      1      0      0    91.8    91.8      0     1.01      4.0      3.7      3.7    94    13.2     5.959    18.3    1.089    1.281      93        0.75    0.000    0.000     302.4    178.4    0.80   178.4     368.0     248.0     223.5     186.0     193.5     120.0    0.000     0.000     0.000     0.000     0.000    0.80     0.00    0.00      0   -9.90   -9.00       14.2       14.8       14.9       15.0       26.4       31.0       31.0       31.0       31.0       31.0       31.0       31.0        0.0        0.0        0.0        0.0        0.0        0.0        0.0        0.0        0.0        0.0        0.0        0.0      0.8       3.9      15.3      20.9      26.5    410.00
    20     5  2019    67     3     298.6     0.0      0.0    0.0    0.0    0.0      0.0      0.0   -9.90      0.1      0.1    100      4.1      3.6    87      4.3     3.8      88     15.2    0.80     -9     13      2      0      0    91.8    91.8      0     1.01      4.1      3.6      3.6    87    13.2     6.075    20.2    1.224    1.440      93        0.82    0.000    0.000     298.6    174.6    0.80   174.6     368.0     248.0     224.5     186.8     194.2     120.0    0.000     0.000     0.000     0.000     0.000    0.80     0.00    0.00      0   -9.90   -9.00       14.1       14.8       14.9       15.0       23.7       30.1       31.0       31.0       31.0       31.0       31.0       31.0        0.0        0.0        0.0        0.0        0.0        0.0        0.0        0.0        0.0        0.0        0.0        0.0      0.0       4.1      15.7      20.2      24.7    410.00
    21     5  2019    68     3     294.6     0.3      0.0    0.0    0.3    0.0      0.0      0.0   -9.90      0.2      0.2    100      5.4      4.1    76      5.6     4.3      77     13.9    0.80     -9     24      5      0      0    91.8    91.8      0     1.01      5.4      4.1      4.1    76    13.2     6.176    22.0    1.359    1.599      93        0.88    0.000    0.000     294.6    170.6    0.80   170.6     368.0     248.0     230.7     192.0     198.7     120.0    0.000     0.000     0.000     0.000     0.000    0.80     0.00    0.00      0   -9.90   -9.00       14.2       14.8       14.9       15.0       21.0       28.6       31.0       31.0       31.0       31.0       31.0       31.0        0.0        0.0        0.0        0.0        0.0        0.0        0.0        0.0        0.0        0.0        0.0        0.0      0.3       5.4      13.1      18.9      24.7    410.00
    22     5  2019    69     4     290.9     0.0      0.0    0.0    0.0    0.0      0.0      0.0   -9.90      0.2      0.1     66      4.9      3.5    72      5.1     3.7      72     12.9    0.80     -9     28      7      0      0    91.7    91.7      0     1.00      4.9      3.5      3.5    72    13.2     6.271    23.9    1.496    1.760      92        0.95    0.000    0.000     290.9    166.9    0.80   166.9     368.0     248.0     228.3     190.0     197.0     120.0    0.000     0.000     0.000     0.000     0.000    0.80     0.00    0.00      0   -9.90   -9.00       14.1       14.8       14.9       15.0       18.6       27.6       31.0       31.0       31.0       31.0       31.0       31.0        0.0        0.0        0.0        0.0        0.0        0.0        0.0        0.0        0.0        0.0        0.0        0.0      0.0       4.9      11.2      17.9      24.5    410.00
    23     5  2019    70     4     287.6     0.2      0.0    0.0    0.2    0.0      0.0      0.0   -9.90      0.2      0.2    100      5.0      3.3    67      5.2     3.5      68     14.0    0.80     -9     33      9      0      0    91.6    91.6      0     1.00      5.0      3.3      3.3    67    13.2     6.359    25.7    1.634    1.922      92        1.02    0.000    0.000     287.6    163.6    0.80   163.6     368.0     248.0     228.8     190.4     197.3     120.0    0.000     0.000     0.000     0.000     0.000    0.80     0.00    0.00      0   -9.90   -9.00       14.1       14.8       14.9       15.0       16.6       26.2       31.0       31.0       31.0       31.0       31.0       31.0        0.0        0.0        0.0        0.0        0.0        0.0        0.0        0.0        0.0        0.0        0.0        0.0      0.2       5.0      12.3      19.0      25.7    410.00
    24     5  2019    71     4     289.9     5.1      0.0    0.0    5.1    0.0      0.0      0.0   -9.90      0.1      0.1    100      3.5      2.6    75      3.6     2.8      76     13.6    0.80     -9     25      6      0      0    91.6    91.6      0     1.00      3.5      2.6      2.6    75    13.2     6.458    27.5    1.779    2.093      92        1.09    0.000    0.000     289.9    165.9    0.80   165.9     368.0     248.0     221.6     184.5     192.1     120.0    0.000     0.000     0.000     0.000     0.000    0.80     0.00    0.00      0   -9.90   -9.00       16.4       14.8       14.9       15.0       16.6       26.2       31.0       31.0       31.0       31.0       31.0       31.0        0.0        0.0        0.0        0.0        0.0        0.0        0.0        0.0        0.0        0.0        0.0        0.0      5.1       3.5      13.4      18.6      23.7    410.00
    25     5  2019    72     4     289.6     2.5      0.0    0.0    2.5    0.0      0.0      0.0   -9.90      0.1      0.1    100      3.6      2.7    75      3.7     2.8      76     13.1    0.80     -9     25      6      0      0    91.5    91.5      0     0.99      3.6      2.7      2.7    75    13.2     6.556    29.4    1.928    2.268      91        1.16    0.000    0.000     289.6    165.6    0.80   165.6     368.0     248.0     222.1     184.8     192.4     120.0    0.000     0.000     0.000     0.000     0.000    0.80     0.00    0.00      0   -9.90   -9.00       16.1       14.8       14.9       15.0       16.6       26.2       31.0       31.0       31.0       31.0       31.0       31.0        0.0        0.0        0.0        0.0        0.0        0.0        0.0        0.0        0.0        0.0        0.0        0.0      2.5       3.6      13.2      18.1      23.0    410.00
    26     5  2019    73     4     286.2     0.0      0.0    0.0    0.0    0.0      0.0      0.0   -9.90      0.2      0.2    100      5.0      3.2    64      5.2     3.4      66     15.1    0.80     -9     36     10      0      0    91.4    91.4      0     0.99      5.0      3.2      3.2    64    13.2     6.640    31.2    2.073    2.439      91        1.22    0.000    0.000     286.2    162.2    0.80   162.2     368.0     248.0     229.3     190.8     197.7     120.0    0.000     0.000     0.000     0.000     0.000    0.80     0.00    0.00      0   -9.90   -9.00       14.5       14.8       14.9       15.0       15.4       25.6       31.0       31.0       31.0       31.0       31.0       31.0        0.0        0.0        0.0        0.0        0.0        0.0        0.0        0.0        0.0        0.0        0.0        0.0      0.0       5.1      14.8      20.1      25.4    410.00
    27     5  2019    74     4     282.8     0.0      0.0    0.0    0.0    0.0      0.0      0.0   -9.90      0.2      0.2    100      5.6      3.2    58      5.8     3.4      59     15.9    0.80     -9     42     13      0      0    91.3    91.3      0     0.98      5.6      3.2      3.2    58    13.2     6.714    33.0    2.217    2.608      90        1.28    0.000    0.000     282.8    158.8    0.80   158.8     368.0     248.0     232.2     193.2     199.8     120.0    0.000     0.000     0.000     0.000     0.000    0.80     0.00    0.00      0   -9.90   -9.00       14.3       14.8       14.9       15.0       15.0       23.5       30.2       31.0       31.0       31.0       31.0       31.0        0.0        0.0        0.0        0.0        0.0        0.0        0.0        0.0        0.0        0.0        0.0        0.0      0.0       5.7      13.8      20.9      28.0    410.00
    28     5  2019    75     4     279.6     0.1      0.0    0.0    0.1    0.0      0.0      0.0   -9.90      0.2      0.1     45      6.2      3.2    51      6.4     3.3      51     16.4    0.80     -9     49     17      0      0    91.2    91.2      0     0.98      6.2      3.2      3.2    51    13.2     6.781    34.8    2.359    2.775      89        1.34    0.000    0.000     279.6    155.6    0.80   155.6     368.0     248.0     235.0     195.6     201.8     120.0    0.000     0.000     0.000     0.000     0.000    0.80     0.00    0.00      0   -9.90   -9.00       14.2       14.8       14.9       15.0       15.0       21.5       29.2       31.0       31.0       31.0       31.0       31.0        0.0        0.0        0.0        0.0        0.0        0.0        0.0        0.0        0.0        0.0        0.0        0.0      0.1       6.3      15.6      21.4      27.1    410.00
    29     5  2019    76     4     277.5     0.4      0.0    0.0    0.4    0.0      0.0      0.0   -9.90      0.2      0.2    100      4.5      2.3    52      4.7     2.5      54     16.8    0.80     -9     48     17      0      0    91.1    91.1      0     0.97      4.5      2.3      2.3    52    13.2     6.848    36.6    2.503    2.945      89        1.40    0.000    0.000     277.5    153.5    0.80   153.5     368.0     248.0     226.9     188.8     195.9     120.0    0.000     0.000     0.000     0.000     0.000    0.80     0.00    0.00      0   -9.90   -9.00       14.5       14.8       14.9       15.0       15.0       19.5       28.8       31.0       31.0       31.0       31.0       31.0        0.0        0.0        0.0        0.0        0.0        0.0        0.0        0.0        0.0        0.0        0.0        0.0      0.4       4.6      16.3      21.8      27.3    410.00
    30     5  2019    77     4     282.8     9.3      0.0    0.0    9.3    0.0      0.0      0.0   -9.90      0.2      0.2    100      3.8      3.8   100      3.9     3.9     100     16.7    0.80     -9      0      0      0      0    91.1    91.1      0     0.97      3.8      3.8      3.8   100    13.2     6.976    38.4    2.676    3.149      89        1.46    0.000    0.000     282.8    158.8    0.80   158.8     368.0     248.0     223.5     186.0     193.5     120.0    0.000     0.000     0.000     0.000     0.000    0.80     0.00    0.00      0   -9.90   -9.00       19.8       14.8       14.9       15.0       15.0       19.5       28.8       31.0       31.0       31.0       31.0       31.0        0.0        0.0        0.0        0.0        0.0        0.0        0.0        0.0        0.0        0.0        0.0        0.0      9.3       3.9      16.6      21.7      26.8    410.00
    31     5  2019    78     4     281.8     1.1      0.0    0.0    1.1    0.0      0.0      0.0   -9.90      0.1      0.1    100      2.7      2.0    75      2.8     2.2      76     15.2    0.80     -9     25      5      0      0    91.0    91.0      0     0.97      2.7      2.0      2.0    75    13.2     7.072    40.2    2.842    3.343      89        1.53    0.000    0.000     281.8    157.8    0.80   157.8     368.0     248.0     218.2     181.7     189.6     120.0    0.000     0.000     0.000     0.000     0.000    0.80     0.00    0.00      0   -9.90   -9.00       18.8       14.8       14.9       15.0       15.0       19.5       28.8       31.0       31.0       31.0       31.0       31.0        0.0        0.0        0.0        0.0        0.0        0.0        0.0        0.0        0.0        0.0        0.0        0.0      1.1       2.8      17.1      20.2      23.4    410.00
     1     6  2019    79     4     279.5     0.0      0.0    0.0    0.0    0.0      0.0      0.0   -9.90      0.2      0.2    100      3.8      2.1    57      3.9     2.3      59     15.4    0.80     -9     43     14      0      0    90.9    90.9      0     0.96      3.8      2.1      2.1    57    13.2     7.144    42.0    2.999    3.528      88        1.60    0.000    0.000     279.5    155.5    0.80   155.5     368.0     248.0     223.5     186.0     193.5     120.0    0.000     0.000     0.000     0.000     0.000    0.80     0.00    0.00      0   -9.90   -9.00       16.5       14.8       14.9       15.0       15.0       19.5       28.8       31.0       31.0       31.0       31.0       31.0        0.0        0.0        0.0        0.0        0.0        0.0        0.0        0.0        0.0        0.0        0.0        0.0      0.0       3.9      15.3      20.4      25.4    410.00
     2     6  2019    80     4     277.0     0.0      0.0    0.0    0.0    0.0      0.0      0.0   -9.90      0.2      0.2    100      4.4      2.3    51      4.6     2.5      53     15.9    0.80     -9     49     17      0      0    90.8    90.8      0     0.96      4.4      2.3      2.3    51    13.2     7.209    43.7    3.153    3.709      88        1.66    0.000    0.000     277.0    153.0    0.80   153.0     368.0     248.0     226.9     188.8     195.9     120.0    0.000     0.000     0.000     0.000     0.000    0.80     0.00    0.00      0   -9.90   -9.00       14.4       14.8       14.9       15.0       15.0       19.1       28.8       31.0       31.0       31.0       31.0       31.0        0.0        0.0        0.0        0.0        0.0        0.0        0.0        0.0        0.0        0.0        0.0        0.0      0.0       4.6      14.2      20.9      27.7    410.00
     3     6  2019    81     4     306.1    33.6      0.0    0.0   32.1    1.5      0.0      0.0   -9.90      0.1      0.1    100      2.9      2.9   100      3.0     3.0     100     15.5    0.80     -9      0      0      0      0    92.0    92.0      0     0.98      2.9      2.9      2.9   100    13.2     7.338    45.6    3.348    3.939      88        1.73    0.000    0.000     306.1    182.1    0.80   182.1     368.0     248.0     219.2     182.5     190.3     120.0    0.000     0.000     0.000     0.000     0.000    0.80     0.00    0.00      0   -9.90   -9.00       43.0       15.3       14.9       15.0       15.0       19.1       28.8       31.0       31.0       31.0       31.0       31.0        0.0        0.0        0.0        0.0        0.0        0.0        0.0        0.0        0.0        0.0        0.0        0.0     33.6       3.0      16.7      20.5      24.3    410.00
     4     6  2019    82     4     309.9     8.4      0.0    0.0    7.3    1.1      0.0      0.0   -9.90      0.1      0.1    100      3.4      3.4   100      3.5     3.5     100     15.4    0.80     -9      0      0      0      0    92.0    92.0      0     0.97      3.4      3.4      3.4   100    13.2     7.466    47.5    3.548    4.174      88        1.80    0.000    0.000     309.9    185.9    0.80   185.9     368.0     248.0     221.6     184.5     184.5     120.0    0.000     0.000     0.000     0.000     0.000    0.80     0.00    0.00      0   -9.90   -9.00       39.7       22.4       14.9       15.0       15.0       19.1       28.8       31.0       31.0       31.0       31.0       31.0        0.0        0.0        0.0        0.0        0.0        0.0        0.0        0.0        0.0        0.0        0.0        0.0      8.4       3.5      15.0      20.4      25.8    410.00
     5     6  2019    83     4     309.9     4.7      0.0    0.0    4.5    0.2      0.0      0.0   -9.90      0.2      0.2    100      4.4      4.4   100      4.5     4.5     100     15.9    0.80     -9      0     -9      0      0    91.9    91.9      0     0.97      4.4      4.4      4.4   100    13.2     7.594    49.4    3.753    4.415      88        1.87    0.000    0.000     309.9    185.9    0.80   185.9     368.0     248.0     226.4     188.4     188.4     120.0    0.000     0.000     0.000     0.000     0.000    0.80     0.00    0.00      0   -9.90   -9.00       34.2       27.9       14.9       15.0       15.0       19.1       28.8       31.0       31.0       31.0       31.0       31.0        0.0        0.0        0.0        0.0        0.0        0.0        0.0        0.0        0.0        0.0        0.0        0.0      4.7       4.5      14.3      20.9      27.4    410.00
     6     6  2019    84     4     311.4     5.5      0.0    0.0    5.1    0.4      0.0      0.0   -9.90      0.1      0.1    100      3.5      3.5   100      3.6     3.6     100     15.9    0.80     -9      0     -9      0      0    91.7    91.7      0     0.96      3.5      3.5      3.5   100    13.2     7.720    51.3    3.962    4.661      88        1.94    0.000    0.000     311.4    187.4    0.80   187.4     368.0     248.0     222.1     184.8     184.8     120.0    0.000     0.000     0.000     0.000     0.000    0.80     0.00    0.00      0   -9.90   -9.00       33.9       29.7       14.9       15.0       15.0       19.1       28.8       31.0       31.0       31.0       31.0       31.0        0.0        0.0        0.0        0.0        0.0        0.0        0.0        0.0        0.0        0.0        0.0        0.0      5.5       3.6      16.8      20.9      24.9    410.00
