AquaCrop 7.0 (August 2022) - Output created on (date) : 27-10-2022   at (time) : 12:37:20

   Run:   1
   Day Month  Year   DAP Stage   WC(1.20)   Rain     Irri   Surf   Infilt   RO    Drain       CR    Zgwt       Ex       E     E/Ex     Trx       Tr  Tr/Trx    ETx      ET  ET/ETx      GD       Z     StExp  StSto  StSen StSalt StWeed   CC      CCw     StTr  Kc(Tr)     Trx       Tr      TrW  Tr/Trx   WP    Biomass     HI    Y(dry)  Y(fresh)  Brelative    WPet      Bin     Bout  WC(1.20) Wr(0.80)     Z       Wr    Wr(SAT)    Wr(FC)   Wr(exp)   Wr(sto)   Wr(sen)   Wr(PWP)    SaltIn    SaltOut   SaltUp   Salt(1.20)  SaltZ     Z       ECe    ECsw   StSalt  Zgwt    ECgw       WC01       WC 2       WC 3       WC 4       WC 5       WC 6       WC 7       WC 8       WC 9       WC10       WC11       WC12      ECe01      ECe 2      ECe 3      ECe 4      ECe 5      ECe 6      ECe 7      ECe 8      ECe 9      ECe10      ECe11      ECe12     Rain       ETo      Tmin      Tavg      Tmax      CO2
                                      mm      mm       mm     mm     mm     mm       mm       mm      m        mm       mm     %        mm       mm    %        mm      mm       %  degC-day     m       %      %      %      %      %      %       %       %       -        mm       mm       mm    %     g/m2    ton/ha      %    ton/ha   ton/ha       %       kg/m3   ton/ha   ton/ha      mm       mm       m       mm        mm        mm        mm        mm        mm         mm    ton/ha    ton/ha    ton/ha    ton/ha    ton/ha     m      dS/m    dS/m      %     m      dS/m       0.05       0.15       0.25       0.35       0.45       0.55       0.65       0.75       0.85       0.95       1.05       1.15       0.05       0.15       0.25       0.35       0.45       0.55       0.65       0.75       0.85       0.95       1.05       1.15       mm        mm     degC      degC      degC       ppm
    15     3  2011     1     1     466.1     0.0      0.0    0.0    0.0    0.0      0.0      0.0   -9.90      2.1      1.9     91      0.0      0.0   100      2.1     1.9      91      4.1    0.30     -9     -9     -9      0     -9     0.0     0.0      0    -9.00      0.0      0.0      0.0   100     0.0     0.000    -9.9    0.000    0.000      -9        0.00    0.000    0.000     466.1    310.1    0.30   115.1     150.0     117.0     109.8      84.3      83.4      69.0    0.000     0.000     0.000     0.000     0.000    0.30     0.00    0.00      0   -9.90   -9.00       37.1       39.0       39.0       39.0       39.0       39.0       39.0       39.0       39.0       39.0       39.0       39.0        0.0        0.0        0.0        0.0        0.0        0.0        0.0        0.0        0.0        0.0        0.0        0.0      0.0       1.9       1.8       9.1      16.4    391.63
    16     3  2011     2     1     464.8     0.0      0.0    0.0    0.0    0.0      0.0      0.0   -9.90      1.7      1.3     78      0.0      0.0   100      1.7     1.3      78      0.9    0.30     -9     -9     -9      0     -9     0.0     0.0      0    -9.00      0.0      0.0      0.0   100     0.0     0.000    -9.9    0.000    0.000      -9        0.00    0.000    0.000     464.8    308.8    0.30   113.8     150.0     117.0     109.8      83.7      83.4      69.0    0.000     0.000     0.000     0.000     0.000    0.30     0.00    0.00      0   -9.90   -9.00       35.8       39.0       39.0       39.0       39.0       39.0       39.0       39.0       39.0       39.0       39.0       39.0        0.0        0.0        0.0        0.0        0.0        0.0        0.0        0.0        0.0        0.0        0.0        0.0      0.0       1.5       2.7       5.9       9.2    391.63
    17     3  2011     3     1     466.8     3.7      0.0    0.0    3.7    0.0      0.0      0.0   -9.90      1.7      1.7    100      0.0      0.0   100      1.7     1.7     100      0.0    0.30     -9     -9     -9      0     -9     0.0     0.0      0    -9.00      0.0      0.0      0.0   100     0.0     0.000    -9.9    0.000    0.000      -9        0.00    0.000    0.000     466.8    310.8    0.30   115.8     150.0     117.0     109.8      83.7      83.4      69.0    0.000     0.000     0.000     0.000     0.000    0.30     0.00    0.00      0   -9.90   -9.00       37.8       39.0       39.0       39.0       39.0       39.0       39.0       39.0       39.0       39.0       39.0       39.0        0.0        0.0        0.0        0.0        0.0        0.0        0.0        0.0        0.0        0.0        0.0        0.0      3.7       1.5      -0.9       1.2       3.3    391.63
    18     3  2011     4     1     466.2     0.0      0.0    0.0    0.0    0.0      0.0      0.0   -9.90      0.7      0.7    100      0.0      0.0   100      0.7     0.7     100      0.0    0.30     -9     -9     -9      0     -9     0.0     0.0      0    -9.00      0.0      0.0      0.0   100     0.0     0.000    -9.9    0.000    0.000      -9        0.00    0.000    0.000     466.2    310.2    0.30   115.2     150.0     117.0     109.8      82.6      83.4      69.0    0.000     0.000     0.000     0.000     0.000    0.30     0.00    0.00      0   -9.90   -9.00       37.2       39.0       39.0       39.0       39.0       39.0       39.0       39.0       39.0       39.0       39.0       39.0        0.0        0.0        0.0        0.0        0.0        0.0        0.0        0.0        0.0        0.0        0.0        0.0      0.0       0.6      -1.7      -0.9      -0.1    391.63
    19     3  2011     5     1     465.2     0.0      0.0    0.0    0.0    0.0      0.0      0.0   -9.90      1.0      1.0    100      0.0      0.0   100      1.0     1.0     100      0.0    0.30     -9     -9     -9      0     -9     0.0     0.0      0    -9.00      0.0      0.0      0.0   100     0.0     0.000    -9.9    0.000    0.000      -9        0.00    0.000    0.000     465.2    309.2    0.30   114.2     150.0     117.0     109.8      83.0      83.4      69.0    0.000     0.000     0.000     0.000     0.000    0.30     0.00    0.00      0   -9.90   -9.00       36.2       39.0       39.0       39.0       39.0       39.0       39.0       39.0       39.0       39.0       39.0       39.0        0.0        0.0        0.0        0.0        0.0        0.0        0.0        0.0        0.0        0.0        0.0        0.0      0.0       0.9      -0.3       1.5       3.2    391.63
    20     3  2011     6     1     464.0     0.0      0.0    0.0    0.0    0.0      0.0      0.0   -9.90      1.2      1.2     98      0.0      0.0   100      1.2     1.2      98      0.0    0.30     -9     -9     -9      0     -9     0.0     0.0      0    -9.00      0.0      0.0      0.0   100     0.0     0.000    -9.9    0.000    0.000      -9        0.00    0.000    0.000     464.0    308.0    0.30   113.0     150.0     117.0     109.8      83.2      83.4      69.0    0.000     0.000     0.000     0.000     0.000    0.30     0.00    0.00      0   -9.90   -9.00       35.0       39.0       39.0       39.0       39.0       39.0       39.0       39.0       39.0       39.0       39.0       39.0        0.0        0.0        0.0        0.0        0.0        0.0        0.0        0.0        0.0        0.0        0.0        0.0      0.0       1.1      -0.5       2.0       4.4    391.63
    21     3  2011     7     1     462.3     0.0      0.0    0.0    0.0    0.0      0.0      0.0   -9.90      2.0      1.7     85      0.0      0.0   100      2.0     1.7      85      0.0    0.31     -9     -9     -9      0     -9     0.0     0.0      0    -9.00      0.0      0.0      0.0   100     0.0     0.000    -9.9    0.000    0.000      -9        0.00    0.000    0.000     462.3    306.3    0.31   113.5     152.8     119.2     111.8      85.7      85.0      70.3    0.000     0.000     0.000     0.000     0.000    0.31     0.00    0.00      0   -9.90   -9.00       33.3       39.0       39.0       39.0       39.0       39.0       39.0       39.0       39.0       39.0       39.0       39.0        0.0        0.0        0.0        0.0        0.0        0.0        0.0        0.0        0.0        0.0        0.0        0.0      0.0       1.8      -1.2       2.4       6.1    391.63
    22     3  2011     8     1     460.8     0.0      0.0    0.0    0.0    0.0      0.0      0.0   -9.90      2.2      1.6     71      0.0      0.0   100      2.2     1.6      71      0.0    0.33     -9     -9     -9      0     -9     0.0     0.0      0    -9.00      0.0      0.0      0.0   100     0.0     0.000    -9.9    0.000    0.000      -9        0.00    0.000    0.000     460.8    304.8    0.33   119.8     162.9     127.1     119.2      91.6      90.6      74.9    0.000     0.000     0.000     0.000     0.000    0.33     0.00    0.00      0   -9.90   -9.00       31.8       39.0       39.0       39.0       39.0       39.0       39.0       39.0       39.0       39.0       39.0       39.0        0.0        0.0        0.0        0.0        0.0        0.0        0.0        0.0        0.0        0.0        0.0        0.0      0.0       2.0      -2.5       3.7       9.8    391.63
    23     3  2011     9     1     459.2     0.0      0.0    0.0    0.0    0.0      0.0      0.0   -9.90      2.6      1.6     60      0.0      0.0   100      2.6     1.6      60      2.5    0.34     -9     -9     -9      0     -9     0.0     0.0      0    -9.00      0.0      0.0      0.0   100     0.0     0.000    -9.9    0.000    0.000      -9        0.00    0.000    0.000     459.2    303.2    0.34   125.5     172.2     134.3     126.0      97.4      95.7      79.2    0.000     0.000     0.000     0.000     0.000    0.34     0.00    0.00      0   -9.90   -9.00       30.2       39.0       39.0       39.0       39.0       39.0       39.0       39.0       39.0       39.0       39.0       39.0        0.0        0.0        0.0        0.0        0.0        0.0        0.0        0.0        0.0        0.0        0.0        0.0      0.0       2.4       3.2       7.5      11.8    391.63
    24     3  2011    10     2     457.7     0.0      0.0    0.0    0.0    0.0      0.0      0.0   -9.90      2.9      1.5     51      0.0      0.0   100      2.9     1.5      51      1.9    0.36     -9      0      0      0      0     6.9     6.9     94     0.13      0.0      0.0      0.0   100    21.1     0.002    -9.9    0.000    0.000     100        0.00    0.000    0.000     457.7    301.7    0.36   130.7     180.9     141.1     128.1     103.3      97.9      83.2    0.000     0.000     0.000     0.000     0.000    0.36     0.00    0.00      0   -9.90   -9.00       28.7       39.0       39.0       39.0       39.0       39.0       39.0       39.0       39.0       39.0       39.0       39.0        0.0        0.0        0.0        0.0        0.0        0.0        0.0        0.0        0.0        0.0        0.0        0.0      0.0       3.0       1.4       6.9      12.3    391.63
    25     3  2011    11     2     455.8     0.0      0.0    0.0    0.0    0.0      0.0      0.0   -9.90      3.4      1.5     43      0.4      0.4   100      3.8     1.8      48      6.1    0.38     -9      0      0      0      0     8.0     8.0     31     0.14      0.4      0.4      0.4   100    21.1     0.023    -9.9    0.000    0.000     100        0.00    0.000    0.000     455.8    299.8    0.38   135.3     189.1     147.5     135.2     108.9     103.2      87.0    0.000     0.000     0.000     0.000     0.000    0.38     0.00    0.00      0   -9.90   -9.00       26.8       39.0       39.0       39.0       39.0       39.0       39.0       39.0       39.0       39.0       39.0       39.0        0.0        0.0        0.0        0.0        0.0        0.0        0.0        0.0        0.0        0.0        0.0        0.0      0.0       3.6       6.4      11.1      15.7    391.63
    26     3  2011    12     2     456.2     2.1      0.0    0.0    2.1    0.0      0.0      0.0   -9.90      1.7      1.7    100      0.0      0.0   100      1.7     1.7     100      0.0    0.39      0     -9      0      0      0     8.0     8.0    100    -9.00      0.0      0.0      0.0   100    21.1     0.023    -9.9    0.000    0.000     100        0.00    0.000    0.000     456.2    300.2    0.39   141.8     196.9     153.6     136.6     110.4     104.9      90.6    0.000     0.000     0.000     0.000     0.000    0.39     0.00    0.00      0   -9.90   -9.00       27.2       39.0       39.0       39.0       39.0       39.0       39.0       39.0       39.0       39.0       39.0       39.0        0.0        0.0        0.0        0.0        0.0        0.0        0.0        0.0        0.0        0.0        0.0        0.0      2.1       1.8       0.1       4.6       9.2    391.63
    27     3  2011    13     2     456.7     1.8      0.0    0.0    1.8    0.0      0.0      0.0   -9.90      1.3      1.3    100      0.0      0.0   100      1.3     1.3     100      0.0    0.41      0     -9      0      0      0     8.0     8.0    100    -9.00      0.0      0.0      0.0   100    21.1     0.023    -9.9    0.000    0.000     100        0.00    0.000    0.000     456.7    300.7    0.41   148.2     204.4     159.4     140.8     114.0     108.3      94.0    0.000     0.000     0.000     0.000     0.000    0.41     0.00    0.00      0   -9.90   -9.00       27.7       39.0       39.0       39.0       39.0       39.0       39.0       39.0       39.0       39.0       39.0       39.0        0.0        0.0        0.0        0.0        0.0        0.0        0.0        0.0        0.0        0.0        0.0        0.0      1.8       1.4      -1.9       1.1       4.0    391.63
    28     3  2011    14     2     459.0     2.9      0.0    0.0    2.9    0.0      0.0      0.0   -9.90      0.7      0.7    100      0.0      0.0   100      0.7     0.7     100      0.0    0.42      0     -9      0      0      0     8.0     8.0    100    -9.00      0.0      0.0      0.0   100    21.1     0.023    -9.9    0.000    0.000     100        0.00    0.000    0.000     459.0    303.0    0.42   156.1     211.7     165.1     144.0     116.7     111.1      97.4    0.000     0.000     0.000     0.000     0.000    0.42     0.00    0.00      0   -9.90   -9.00       30.0       39.0       39.0       39.0       39.0       39.0       39.0       39.0       39.0       39.0       39.0       39.0        0.0        0.0        0.0        0.0        0.0        0.0        0.0        0.0        0.0        0.0        0.0        0.0      2.9       0.7      -1.7       0.5       2.6    391.63
    29     3  2011    15     2     457.4     0.0      0.0    0.0    0.0    0.0      0.0      0.0   -9.90      1.6      1.6    100      0.0      0.0   100      1.6     1.6     100      0.9    0.44      0      0      0      0      0     9.3     9.3     98     0.17      0.0      0.0      0.0   100    21.1     0.023    -9.9    0.000    0.000      98        0.00    0.000    0.000     457.4    301.4    0.44   159.9     218.7     170.5     151.4     122.4     116.3     100.6    0.000     0.000     0.000     0.000     0.000    0.44     0.00    0.00      0   -9.90   -9.00       28.4       39.0       39.0       39.0       39.0       39.0       39.0       39.0       39.0       39.0       39.0       39.0        0.0        0.0        0.0        0.0        0.0        0.0        0.0        0.0        0.0        0.0        0.0        0.0      0.0       1.7      -0.1       5.9      11.9    391.63
    30     3  2011    16     2     455.0     0.0      0.0    0.0    0.0    0.0      0.0      0.0   -9.90      2.5      2.3     90      0.1      0.1   100      2.7     2.4      91      3.7    0.45      0      0      0      0      0    10.7    10.7     75     0.19      0.1      0.1      0.1   100    21.1     0.033    -9.9    0.000    0.000      86        0.00    0.000    0.000     455.0    299.0    0.45   162.8     225.4     175.8     159.1     128.4     121.7     103.7    0.000     0.000     0.000     0.000     0.000    0.45     0.00    0.00      0   -9.90   -9.00       26.0       39.0       39.0       39.0       39.0       39.0       39.0       39.0       39.0       39.0       39.0       39.0        0.0        0.0        0.0        0.0        0.0        0.0        0.0        0.0        0.0        0.0        0.0        0.0      0.0       2.8       1.2       8.7      16.2    391.63
    31     3  2011    17     2     452.9     0.0      0.0    0.0    0.0    0.0      0.0      0.0   -9.90      2.5      1.7     68      0.3      0.3   100      2.8     2.0      72      5.4    0.46      0      0      0      0      0    12.4    12.4     43     0.22      0.3      0.3      0.3   100    21.1     0.059    -9.9    0.000    0.000      77        0.00    0.000    0.000     452.9    296.9    0.46   165.9     232.0     181.0     163.7     132.1     125.3     106.7    0.000     0.000     0.000     0.000     0.000    0.46     0.00    0.00      0   -9.90   -9.00       23.9       39.0       39.0       39.0       39.0       39.0       39.0       39.0       39.0       39.0       39.0       39.0        0.0        0.0        0.0        0.0        0.0        0.0        0.0        0.0        0.0        0.0        0.0        0.0      0.0       2.8       3.6      10.4      17.2    391.63
     1     4  2011    18     2     450.9     0.0      0.0    0.0    0.0    0.0      0.0      0.0   -9.90      2.9      1.5     52      0.5      0.5   100      3.4     2.0      60      5.7    0.48      0      0      0      0      0    14.4    14.4     38     0.25      0.5      0.5      0.5   100    21.1     0.092    -9.9    0.000    0.000      73        0.00    0.000    0.000     450.9    294.9    0.48   168.9     238.5     186.0     170.0     137.0     129.8     109.7    0.000     0.000     0.000     0.000     0.000    0.48     0.00    0.00      0   -9.90   -9.00       22.4       38.5       39.0       39.0       39.0       39.0       39.0       39.0       39.0       39.0       39.0       39.0        0.0        0.0        0.0        0.0        0.0        0.0        0.0        0.0        0.0        0.0        0.0        0.0      0.0       3.4       3.8      10.7      17.6    391.63
     2     4  2011    19     2     449.6     0.0      0.0    0.0    0.0    0.0      0.0      0.0   -9.90      2.1      0.9     43      0.4      0.4   100      2.6     1.3      52      5.5    0.49      0      0      0      0      0    16.6    16.6     41     0.28      0.4      0.4      0.4   100    21.1     0.127    -9.9    0.000    0.000      72        0.00    0.000    0.000     449.6    293.6    0.49   172.5     244.8     190.9     172.1     138.9     131.8     112.6    0.000     0.000     0.000     0.000     0.000    0.49     0.00    0.00      0   -9.90   -9.00       21.5       38.0       39.0       39.0       39.0       39.0       39.0       39.0       39.0       39.0       39.0       39.0        0.0        0.0        0.0        0.0        0.0        0.0        0.0        0.0        0.0        0.0        0.0        0.0      0.0       2.6       5.6      10.5      15.4    391.63
     3     4  2011    20     2     448.5     0.0      0.0    0.0    0.0    0.0      0.0      0.0   -9.90      2.3      0.9     37      0.2      0.2   100      2.5     1.1      42      3.5    0.50      0      0      0      0      0    19.2    19.2     77     0.32      0.2      0.2      0.2   100    21.1     0.143    -9.9    0.000    0.000      71        0.00    0.000    0.000     448.5    292.5    0.50   176.2     250.9     195.7     177.6     143.3     135.9     115.4    0.000     0.000     0.000     0.000     0.000    0.50     0.00    0.00      0   -9.90   -9.00       20.7       37.8       39.0       39.0       39.0       39.0       39.0       39.0       39.0       39.0       39.0       39.0        0.0        0.0        0.0        0.0        0.0        0.0        0.0        0.0        0.0        0.0        0.0        0.0      0.0       3.0       3.4       8.5      13.7    391.63
     4     4  2011    21     2     448.3     0.0      0.0    0.0    0.0    0.0      0.0      0.0   -9.90      0.5      0.2     33      0.0      0.0   100      0.5     0.2      35      1.3    0.51      0      0      0      0      0    22.2    22.2     96     0.37      0.0      0.0      0.0   100    21.1     0.146    -9.9    0.000    0.000      71        0.00    0.000    0.000     448.3    292.3    0.51   180.7     256.9     200.4     174.8     141.7     134.8     118.2    0.000     0.000     0.000     0.000     0.000    0.51     0.00    0.00      0   -9.90   -9.00       20.5       37.8       39.0       39.0       39.0       39.0       39.0       39.0       39.0       39.0       39.0       39.0        0.0        0.0        0.0        0.0        0.0        0.0        0.0        0.0        0.0        0.0        0.0        0.0      0.0       0.7       5.1       6.3       7.6    391.63
     5     4  2011    22     2     448.1     0.0      0.0    0.0    0.0    0.0      0.0      0.0   -9.90      0.7      0.2     33      0.0      0.0   100      0.7     0.3      36      2.1    0.53      0      0      0      0      0    25.7    25.7     92     0.42      0.0      0.0      0.0   100    21.1     0.153    -9.9    0.000    0.000      71        0.00    0.000    0.000     448.1    292.1    0.53   185.1     262.8     205.0     179.8     145.6     138.5     120.9    0.000     0.000     0.000     0.000     0.000    0.53     0.00    0.00      0   -9.90   -9.00       20.3       37.8       39.0       39.0       39.0       39.0       39.0       39.0       39.0       39.0       39.0       39.0        0.0        0.0        0.0        0.0        0.0        0.0        0.0        0.0        0.0        0.0        0.0        0.0      0.0       1.0       4.7       7.1       9.4    391.63
     6     4  2011    23     2     446.8     0.0      0.0    0.0    0.0    0.0      0.0      0.0   -9.90      1.6      0.5     31      0.8      0.8   100      2.4     1.3      54      6.1    0.54      0      0      0      0      0    29.7    29.7     31     0.47      0.8      0.8      0.8   100    21.1     0.221    -9.9    0.000    0.000      71        0.00    0.000    0.000     446.8    290.8    0.54   188.3     268.6     209.5     188.6     152.2     144.5     123.6    0.000     0.000     0.000     0.000     0.000    0.54     0.00    0.00      0   -9.90   -9.00       19.8       37.0       39.0       39.0       39.0       39.0       39.0       39.0       39.0       39.0       39.0       39.0        0.0        0.0        0.0        0.0        0.0        0.0        0.0        0.0        0.0        0.0        0.0        0.0      0.0       2.5       7.1      11.1      15.0    391.63
     7     4  2011    24     2     449.2     4.0      0.0    0.0    4.0    0.0      0.0      0.0   -9.90      0.9      0.9    100      0.7      0.7   100      1.6     1.6     100      6.9    0.55      0      0      0      0      0    34.3    34.3     19     0.53      0.7      0.7      0.7   100    21.1     0.311    -9.9    0.000    0.000      72        0.00    0.000    0.000     449.2    293.2    0.55   195.1     274.3     214.0     189.6     153.4     145.7     126.2    0.000     0.000     0.000     0.000     0.000    0.55     0.00    0.00      0   -9.90   -9.00       22.9       36.3       39.0       39.0       39.0       39.0       39.0       39.0       39.0       39.0       39.0       39.0        0.0        0.0        0.0        0.0        0.0        0.0        0.0        0.0        0.0        0.0        0.0        0.0      4.0       1.6       8.3      11.9      15.5    391.63
     8     4  2011    25     2     449.7     3.0      0.0    0.0    3.0    0.0      0.0      0.0   -9.90      1.7      1.7    100      0.7      0.7   100      2.4     2.4     100      4.4    0.56      0      0      0      0      0    39.7    39.7     64     0.59      0.7      0.7      0.7   100    21.1     0.357    -9.9    0.000    0.000      72        0.00    0.000    0.000     449.7    293.7    0.56   200.1     279.9     218.3     199.5     160.8     152.4     128.8    0.000     0.000     0.000     0.000     0.000    0.56     0.00    0.00      0   -9.90   -9.00       23.4       36.3       39.0       39.0       39.0       39.0       39.0       39.0       39.0       39.0       39.0       39.0        0.0        0.0        0.0        0.0        0.0        0.0        0.0        0.0        0.0        0.0        0.0        0.0      3.0       3.4       6.4       9.4      12.3    391.63
     9     4  2011    26     2     452.6     3.9      0.0    0.0    3.9    0.0      0.0      0.0   -9.90      1.0      1.0    100      0.1      0.1   100      1.1     1.1     100      1.7    0.57      0      0      0      0      0    45.9    45.9     95     0.66      0.1      0.1      0.1   100    21.1     0.364    -9.9    0.000    0.000      72        0.00    0.000    0.000     452.6    296.6    0.57   207.2     285.4     222.6     199.7     161.3     153.1     131.3    0.000     0.000     0.000     0.000     0.000    0.57     0.00    0.00      0   -9.90   -9.00       26.3       36.3       39.0       39.0       39.0       39.0       39.0       39.0       39.0       39.0       39.0       39.0        0.0        0.0        0.0        0.0        0.0        0.0        0.0        0.0        0.0        0.0        0.0        0.0      3.9       2.3       4.8       6.7       8.5    391.63
    10     4  2011    27     2     453.8     2.0      0.0    0.0    2.0    0.0      0.0      0.0   -9.90      0.8      0.8    100      0.0      0.0   100      0.8     0.8     100      0.0    0.58      0     -9      0      0      0    45.9    45.9    100    -9.00      0.0      0.0      0.0   100    21.1     0.364    -9.9    0.000    0.000      72        0.00    0.000    0.000     453.8    297.8    0.58   212.6     290.8     226.9     202.8     163.9     155.6     133.8    0.000     0.000     0.000     0.000     0.000    0.58     0.00    0.00      0   -9.90   -9.00       27.5       36.3       39.0       39.0       39.0       39.0       39.0       39.0       39.0       39.0       39.0       39.0        0.0        0.0        0.0        0.0        0.0        0.0        0.0        0.0        0.0        0.0        0.0        0.0      2.0       2.1       2.7       5.0       7.2    391.63
    11     4  2011    28     2     453.0     0.0      0.0    0.0    0.0    0.0      0.0      0.0   -9.90      0.8      0.8    100      0.0      0.0   100      0.8     0.8     100      0.0    0.59      0     -9      0      0      0    45.9    45.9    100    -9.00      0.0      0.0      0.0   100    21.1     0.364    -9.9    0.000    0.000      72        0.00    0.000    0.000     453.0    297.0    0.59   216.0     296.2     231.0     206.5     166.9     158.4     136.2    0.000     0.000     0.000     0.000     0.000    0.59     0.00    0.00      0   -9.90   -9.00       26.7       36.3       39.0       39.0       39.0       39.0       39.0       39.0       39.0       39.0       39.0       39.0        0.0        0.0        0.0        0.0        0.0        0.0        0.0        0.0        0.0        0.0        0.0        0.0      0.0       2.1       2.2       4.6       6.9    391.63
    12     4  2011    29     2     454.9     2.3      0.0    0.0    2.3    0.0      0.0      0.0   -9.90      0.4      0.4    100      0.0      0.0   100      0.4     0.4     100      0.0    0.60      0     -9      0      0      0    45.9    45.9    100    -9.00      0.0      0.0      0.0   100    21.1     0.364    -9.9    0.000    0.000      72        0.00    0.000    0.000     454.9    298.9    0.60   222.0     301.5     235.1     206.6     167.3     159.1     138.7    0.000     0.000     0.000     0.000     0.000    0.60     0.00    0.00      0   -9.90   -9.00       28.6       36.3       39.0       39.0       39.0       39.0       39.0       39.0       39.0       39.0       39.0       39.0        0.0        0.0        0.0        0.0        0.0        0.0        0.0        0.0        0.0        0.0        0.0        0.0      2.3       1.1       1.8       4.1       6.4    391.63
    13     4  2011    30     2     460.8     6.1      0.0    0.0    6.1    0.0      0.0      0.0   -9.90      0.2      0.2    100      0.0      0.0   100      0.2     0.2     100      1.0    0.61      0      0      0      0      0    51.8    51.8     98     0.73      0.0      0.0      0.0   100    21.1     0.368    -9.9    0.000    0.000      72        0.00    0.000    0.000     460.8    304.8    0.61   232.0     306.7     239.2     207.9     168.6     160.5     141.1    0.000     0.000     0.000     0.000     0.000    0.61     0.00    0.00      0   -9.90   -9.00       34.5       36.3       39.0       39.0       39.0       39.0       39.0       39.0       39.0       39.0       39.0       39.0        0.0        0.0        0.0        0.0        0.0        0.0        0.0        0.0        0.0        0.0        0.0        0.0      6.1       0.5       4.0       6.0       7.9    391.63
    14     4  2011    31     2     467.4     7.2      0.0    0.0    7.0    0.2      0.0      0.0   -9.90      0.4      0.4    100      0.0      0.0   100      0.4     0.4     100      0.9    0.62      0      0      0      0      0    56.8    56.8     98     0.78      0.0      0.0      0.0   100    21.1     0.372    -9.9    0.000    0.000      73        0.00    0.000    0.000     467.4    311.4    0.62   242.6     311.8     243.2     214.0     173.3     164.7     143.4    0.000     0.000     0.000     0.000     0.000    0.62     0.00    0.00      0   -9.90   -9.00       41.1       36.3       39.0       39.0       39.0       39.0       39.0       39.0       39.0       39.0       39.0       39.0        0.0        0.0        0.0        0.0        0.0        0.0        0.0        0.0        0.0        0.0        0.0        0.0      7.2       1.2       3.7       5.9       8.2    391.63
    15     4  2011    32     2     470.2     3.9      0.0    0.0    3.8    0.1      0.0      0.0   -9.90      0.7      0.7    100      0.3      0.3   100      1.0     1.0     100      3.0    0.63      0      0      0      0      0    61.2    61.2     84     0.82      0.3      0.3      0.3   100    21.1     0.399    -9.9    0.000    0.000      73        0.00    0.000    0.000     470.2    314.2    0.63   249.3     316.9     247.2     222.5     179.6     170.4     145.8    0.000     0.000     0.000     0.000     0.000    0.63     0.00    0.00      0   -9.90   -9.00       43.0       37.2       39.0       39.0       39.0       39.0       39.0       39.0       39.0       39.0       39.0       39.0        0.0        0.0        0.0        0.0        0.0        0.0        0.0        0.0        0.0        0.0        0.0        0.0      3.9       2.5       5.3       8.0      10.7    391.63
    16     4  2011    33     2     469.0     0.0      0.0    0.0    0.0    0.0      0.0      0.0   -9.90      0.7      0.7    100      0.4      0.4   100      1.1     1.1     100      3.2    0.64      0      0      0      0      0    65.0    65.0     82     0.85      0.4      0.4      0.4   100    21.1     0.431    -9.9    0.000    0.000      74        0.00    0.000    0.000     469.0    313.0    0.64   252.1     321.9     251.1     227.5     183.5     174.1     148.1    0.000     0.000     0.000     0.000     0.000    0.64     0.00    0.00      0   -9.90   -9.00       40.2       38.8       39.0       39.0       39.0       39.0       39.0       39.0       39.0       39.0       39.0       39.0        0.0        0.0        0.0        0.0        0.0        0.0        0.0        0.0        0.0        0.0        0.0        0.0      0.0       2.9       3.7       8.2      12.6    391.63
    17     4  2011    34     2     467.6     0.0      0.0    0.0    0.0    0.0      0.0      0.0   -9.90      0.6      0.6    100      0.8      0.8   100      1.4     1.4     100      4.0    0.65      0      0      0      0      0    68.3    68.3     70     0.88      0.8      0.8      0.8   100    21.1     0.487    -9.9    0.000    0.000      76        0.00    0.000    0.000     467.6    311.6    0.65   254.6     326.9     254.9     231.0     186.4     176.7     150.4    0.000     0.000     0.000     0.000     0.000    0.65     0.00    0.00      0   -9.90   -9.00       38.3       39.2       39.1       39.0       39.0       39.0       39.0       39.0       39.0       39.0       39.0       39.0        0.0        0.0        0.0        0.0        0.0        0.0        0.0        0.0        0.0        0.0        0.0        0.0      0.0       2.9       2.9       9.0      15.1    391.63
    18     4  2011    35     2     465.2     0.0      0.0    0.0    0.0    0.0      0.0      0.0   -9.90      0.5      0.5    100      1.9      1.9   100      2.4     2.4     100      6.4    0.66      0      0      0      0      0    71.1    71.1     25     0.90      1.9      1.9      1.9   100    21.1     0.630    -9.9    0.000    0.000      79        0.00    0.000    0.000     465.2    309.2    0.66   255.9     331.8     258.8     234.1     188.9     179.1     152.6    0.000     0.000     0.000     0.000     0.000    0.66     0.00    0.00      0   -9.90   -9.00       35.9       39.1       39.1       39.0       39.0       39.0       39.0       39.0       39.0       39.0       39.0       39.0        0.0        0.0        0.0        0.0        0.0        0.0        0.0        0.0        0.0        0.0        0.0        0.0      0.0       2.8       6.0      11.4      16.9    391.63
    19     4  2011    36     2     460.9     0.0      0.0    0.0    0.0    0.0      0.0      0.0   -9.90      0.7      0.7    100      3.5      3.5   100      4.3     4.3     100      7.8    0.67      0      0      0      0      0    73.6    73.6     11     0.92      3.5      3.5      3.5   100    21.1     0.804    -9.9    0.000    0.000      81        0.00    0.000    0.000     460.9    304.8    0.67   255.4     336.6     262.6     243.6     195.9     185.4     154.8    0.000     0.000     0.000     0.000     0.000    0.67     0.00    0.00      0   -9.90   -9.00       31.6       39.1       39.0       39.0       39.0       39.0       39.0       39.0       39.0       39.0       39.0       39.0        0.0        0.0        0.0        0.0        0.0        0.0        0.0        0.0        0.0        0.0        0.0        0.0      0.0       4.3       6.4      12.8      19.2    391.63
    20     4  2011    37     2     458.6     0.0      0.0    0.0    0.0    0.0      0.1      0.0   -9.90      0.7      0.7    100      1.5      1.5   100      2.2     2.2     100      4.5    0.68      0      0      0      0      0    75.7    75.7     61     0.94      1.5      1.5      1.5   100    21.1     0.882    -9.9    0.000    0.000      82        0.00    0.000    0.000     458.6    302.5    0.68   256.8     341.4     266.3     246.6     198.4     187.8     157.0    0.000     0.000     0.000     0.000     0.000    0.68     0.00    0.00      0   -9.90   -9.00       29.4       39.0       39.0       39.0       39.0       39.0       39.0       39.0       39.0       39.0       39.0       39.0        0.0        0.0        0.0        0.0        0.0        0.0        0.0        0.0        0.0        0.0        0.0        0.0      0.0       4.2       3.2       9.5      15.8    391.63
    21     4  2011    38     2     457.0     0.0      0.0    0.0    0.0    0.0      0.1      0.0   -9.90      0.6      0.4     80      1.1      1.1   100      1.7     1.6      93      3.9    0.69      0      0      0      0      0    77.5    77.5     71     0.95      1.1      1.1      1.1   100    21.1     0.941    -9.9    0.000    0.000      83        0.00    0.000    0.000     457.0    300.9    0.69   258.9     346.2     270.0     249.2     200.6     189.9     159.2    0.000     0.000     0.000     0.000     0.000    0.69     0.00    0.00      0   -9.90   -9.00       27.8       39.0       39.0       39.0       39.0       39.0       39.0       39.0       39.0       39.0       39.0       39.0        0.0        0.0        0.0        0.0        0.0        0.0        0.0        0.0        0.0        0.0        0.0        0.0      0.0       4.0       1.2       8.9      16.7    391.63
    22     4  2011    39     2     454.3     0.0      0.0    0.0    0.0    0.0      0.0      0.0   -9.90      0.6      0.4     66      2.2      2.2   100      2.7     2.6      93      5.2    0.70      0      0      0      0      0    79.1    79.1     47     0.97      2.2      2.2      2.2   100    21.1     1.049    -9.9    0.000    0.000      84        0.00    0.000    0.000     454.3    298.3    0.70   260.0     350.9     273.7     253.9     204.2     193.3     161.4    0.000     0.000     0.000     0.000     0.000    0.70     0.00    0.00      0   -9.90   -9.00       25.3       39.0       39.0       39.0       39.0       39.0       39.0       39.0       39.0       39.0       39.0       39.0        0.0        0.0        0.0        0.0        0.0        0.0        0.0        0.0        0.0        0.0        0.0        0.0      0.0       4.3       4.5      10.2      15.9    391.63
    23     4  2011    40     2     452.1     0.0      0.0    0.0    0.0    0.0      0.0      0.0   -9.90      0.5      0.2     48      1.9      1.9   100      2.4     2.2      90      5.1    0.71      0      0      0      0      0    80.5    80.5     49     0.98      1.9      1.9      1.9   100    21.1     1.154    -9.9    0.000    0.000      85        0.00    0.000    0.000     452.1    296.1    0.71   261.4     355.5     277.3     255.6     205.7     194.8     163.5    0.000     0.000     0.000     0.000     0.000    0.71     0.00    0.00      0   -9.90   -9.00       23.1       39.0       39.0       39.0       39.0       39.0       39.0       39.0       39.0       39.0       39.0       39.0        0.0        0.0        0.0        0.0        0.0        0.0        0.0        0.0        0.0        0.0        0.0        0.0      0.0       3.9       2.5      10.1      17.7    391.63
    24     4  2011    41     2     448.5     0.0      0.0    0.0    0.0    0.0      0.0      0.0   -9.90      0.5      0.2     37      3.4      3.4   100      3.9     3.6      92      6.7    0.72      0      0      0      0      0    81.6    81.6     22     0.99      3.4      3.4      3.4   100    21.1     1.315    -9.9    0.000    0.000      86        0.00    0.000    0.000     448.5    292.5    0.72   261.4     360.1     280.9     261.5     210.2     198.9     165.7    0.000     0.000     0.000     0.000     0.000    0.72     0.00    0.00      0   -9.90   -9.00       22.9       35.6       39.0       39.0       39.0       39.0       39.0       39.0       39.0       39.0       39.0       39.0        0.0        0.0        0.0        0.0        0.0        0.0        0.0        0.0        0.0        0.0        0.0        0.0      0.0       4.5       3.5      11.7      19.8    391.63
    25     4  2011    42     2     444.6     0.0      0.0    0.0    0.0    0.0      0.0      0.0   -9.90      0.4      0.1     29      3.7      3.7   100      4.2     3.9      93      8.2    0.73      0      0      0      0      0    82.7    82.7      8     0.99      3.7      3.7      3.7   100    21.1     1.508    -9.9    0.000    0.000      87        0.00    0.000    0.000     444.6    288.6    0.73   261.1     364.7     284.5     263.0     211.7     200.4     167.8    0.000     0.000     0.000     0.000     0.000    0.73     0.00    0.00      0   -9.90   -9.00       22.8       31.8       39.0       39.0       39.0       39.0       39.0       39.0       39.0       39.0       39.0       39.0        0.0        0.0        0.0        0.0        0.0        0.0        0.0        0.0        0.0        0.0        0.0        0.0      0.0       4.1       5.1      13.2      21.3    391.63
    26     4  2011    43     2     440.2     0.0      0.0    0.0    0.0    0.0      0.0      0.0   -9.90      0.4      0.1     23      4.4      4.4   100      4.8     4.5      93      9.4    0.74      1      0      0      0      0    83.5    83.5      3     1.00      4.4      4.4      4.4   100    21.1     1.712    -9.9    0.000    0.000      89        0.00    0.000    0.000     440.2    284.2    0.74   260.2     369.3     288.0     268.1     215.6     204.0     169.9    0.000     0.000     0.000     0.000     0.000    0.74     0.00    0.00      0   -9.90   -9.00       22.7       27.5       39.0       39.0       39.0       39.0       39.0       39.0       39.0       39.0       39.0       39.0        0.0        0.0        0.0        0.0        0.0        0.0        0.0        0.0        0.0        0.0        0.0        0.0      0.0       4.5       6.7      14.4      22.2    391.63
    27     4  2011    44     2     435.1     0.0      0.0    0.0    0.0    0.0      0.0      0.0   -9.90      0.4      0.1     17      5.0      5.0   100      5.5     5.1      93     10.7    0.75      3      0      0      0      0    84.3    84.3      0     1.00      5.0      5.0      5.0   100    21.1     1.924    -9.9    0.000    0.000      89        0.00    0.000    0.000     435.1    279.1    0.75   258.6     373.8     291.5     273.6     219.8     207.8     171.9    0.000     0.000     0.000     0.000     0.000    0.75     0.00    0.00      0   -9.90   -9.00       22.6       23.4       38.1       39.0       39.0       39.0       39.0       39.0       39.0       39.0       39.0       39.0        0.0        0.0        0.0        0.0        0.0        0.0        0.0        0.0        0.0        0.0        0.0        0.0      0.0       5.0       7.7      15.7      23.6    391.63
    28     4  2011    45     2     429.9     0.0      0.0    0.0    0.0    0.0      0.0      0.0   -9.90      0.4      0.1     13      5.1      5.1   100      5.6     5.2      93     10.7    0.76      6      0      0      0      0    84.9    84.9      0     1.01      5.1      5.1      5.1   100    21.1     2.137    -9.9    0.000    0.000      90        0.00    0.000    0.000     429.9    273.9    0.76   256.9     378.2     295.0     277.3     222.7     210.6     174.0    0.000     0.000     0.000     0.000     0.000    0.76     0.00    0.00      0   -9.90   -9.00       22.6       22.6       34.3       38.4       39.0       39.0       39.0       39.0       39.0       39.0       39.0       39.0        0.0        0.0        0.0        0.0        0.0        0.0        0.0        0.0        0.0        0.0        0.0        0.0      0.0       5.1       9.0      15.7      22.3    391.63
    29     4  2011    46     2     424.6     0.0      0.0    0.0    0.0    0.0      0.0      0.0   -9.90      0.4      0.1     12      5.3      5.3   100      5.7     5.3      93     10.9    0.77      9      0      0      0      0    85.4    85.4      0     1.01      5.3      5.3      5.3   100    21.1     2.351    -9.9    0.000    0.000      91        0.00    0.000    0.000     424.6    268.6    0.77   255.0     382.6     298.5     281.0     225.6     213.3     176.0    0.000     0.000     0.000     0.000     0.000    0.77     0.00    0.00      0   -9.90   -9.00       22.5       22.6       30.4       37.0       39.0       39.0       39.0       39.0       39.0       39.0       39.0       39.0        0.0        0.0        0.0        0.0        0.0        0.0        0.0        0.0        0.0        0.0        0.0        0.0      0.0       5.2       9.7      15.9      22.2    391.63
    30     4  2011    47     2     420.5     0.0      0.0    0.0    0.0    0.0      0.0      0.0   -9.90      0.3      0.0     12      4.1      4.1   100      4.4     4.1      94     10.2    0.77      9      0      0      0      0    85.8    85.8      0     1.02      4.1      4.1      4.1   100    21.1     2.565    -9.9    0.000    0.000      91        0.00    0.000    0.000     420.5    264.5    0.77   254.3     387.0     301.9     278.7     224.3     212.4     178.0    0.000     0.000     0.000     0.000     0.000    0.77     0.00    0.00      0   -9.90   -9.00       22.5       22.6       26.6       36.8       39.0       39.0       39.0       39.0       39.0       39.0       39.0       39.0        0.0        0.0        0.0        0.0        0.0        0.0        0.0        0.0        0.0        0.0        0.0        0.0      0.0       4.0       7.9      15.2      22.5    391.63
     1     5  2011    48     2     415.7     0.1      0.0    0.0    0.1    0.0      0.0      0.0   -9.90      0.3      0.1     39      4.7      4.7   100      5.0     4.8      96     10.2    0.78     14      0      0      0      0    86.2    86.2      0     1.02      4.7      4.7      4.7   100    21.1     2.780    -9.9    0.000    0.000      92        0.00    0.000    0.000     415.7    259.7    0.78   253.0     391.4     305.3     284.6     228.8     216.5     180.0    0.000     0.000     0.000     0.000     0.000    0.78     0.00    0.00      0   -9.90   -9.00       22.4       22.6       23.2       35.4       39.0       39.0       39.0       39.0       39.0       39.0       39.0       39.0        0.0        0.0        0.0        0.0        0.0        0.0        0.0        0.0        0.0        0.0        0.0        0.0      0.1       4.6       8.2      15.2      22.1    391.63
     2     5  2011    49     3     420.7     6.4      0.0    0.0    6.4    0.0      0.0      0.0   -9.90      0.1      0.1    100      1.3      1.3   100      1.4     1.4     100      6.9    0.79      4      0      0      0      0    86.5    86.5     20     1.02      1.3      1.3      1.3   100    21.1     2.953    -9.9    0.000    0.000      92        0.00    0.000    0.000     420.7    264.7    0.79   261.4     395.7     308.7     273.5     221.3     210.2     182.0    0.000     0.000     0.000     0.000     0.000    0.79     0.00    0.00      0   -9.90   -9.00       27.4       22.6       23.2       35.4       39.0       39.0       39.0       39.0       39.0       39.0       39.0       39.0        0.0        0.0        0.0        0.0        0.0        0.0        0.0        0.0        0.0        0.0        0.0        0.0      6.4       1.6       9.8      11.9      13.9    391.63
     3     5  2011    50     3     419.1     0.2      0.0    0.0    0.2    0.0      0.0      0.0   -9.90      0.1      0.1    100      1.6      1.6   100      1.8     1.8     100      7.2    0.80      5      0      0      0      0    86.8    86.8     15     1.02      1.6      1.6      1.6   100    21.1     3.136    -9.9    0.000    0.000      93        0.00    0.000    0.000     419.1    263.1    0.80   263.1     400.0     312.0     277.9     224.7     213.4     184.0    0.000     0.000     0.000     0.000     0.000    0.80     0.00    0.00      0   -9.90   -9.00       25.8       22.6       23.2       35.4       39.0       39.0       39.0       39.0       39.0       39.0       39.0       39.0        0.0        0.0        0.0        0.0        0.0        0.0        0.0        0.0        0.0        0.0        0.0        0.0      0.2       1.9       9.5      12.2      15.0    391.63
     4     5  2011    51     3     417.9     0.3      0.0    0.0    0.3    0.0      0.0      0.0   -9.90      0.2      0.2    100      1.4      1.4   100      1.5     1.5     100      5.4    0.80      7      0      0      0      0    87.1    87.1     42     1.02      1.4      1.4      1.4   100    19.4     3.251     1.6    0.053    0.063      93        0.05    0.000    0.000     417.9    261.9    0.80   261.9     400.0     312.0     279.8     226.0     214.5     184.0    0.000     0.000     0.000     0.000     0.000    0.80     0.00    0.00      0   -9.90   -9.00       24.6       22.6       23.2       35.4       39.0       39.0       39.0       39.0       39.0       39.0       39.0       39.0        0.0        0.0        0.0        0.0        0.0        0.0        0.0        0.0        0.0        0.0        0.0        0.0      0.3       2.3       6.4      10.4      14.5    391.63
     5     5  2011    52     3     417.2     0.0      0.0    0.0    0.0    0.0      0.0      0.0   -9.90      0.2      0.1     90      0.6      0.6   100      0.7     0.7      98      3.6    0.80      8      0      0      0      0    87.3    87.3     76     1.02      0.6      0.6      0.6   100    18.6     3.297     2.1    0.068    0.080      93        0.07    0.000    0.000     417.2    261.2    0.80   261.2     400.0     312.0     280.3     226.4     214.8     184.0    0.000     0.000     0.000     0.000     0.000    0.80     0.00    0.00      0   -9.90   -9.00       23.9       22.6       23.2       35.4       39.0       39.0       39.0       39.0       39.0       39.0       39.0       39.0        0.0        0.0        0.0        0.0        0.0        0.0        0.0        0.0        0.0        0.0        0.0        0.0      0.0       2.4       6.0       8.6      11.2    391.63
     6     5  2011    53     3     416.8     0.6      0.0    0.0    0.6    0.0      0.0      0.0   -9.90      0.3      0.3    100      0.8      0.8   100      1.0     1.0     100      3.3    0.80     13      0      0      0      0    87.4    87.4     80     1.02      0.8      0.8      0.8   100    17.7     3.332     2.6    0.086    0.102      93        0.09    0.000    0.000     416.8    260.8    0.80   260.8     400.0     312.0     287.0     231.1     218.9     184.0    0.000     0.000     0.000     0.000     0.000    0.80     0.00    0.00      0   -9.90   -9.00       23.5       22.6       23.2       35.4       39.0       39.0       39.0       39.0       39.0       39.0       39.0       39.0        0.0        0.0        0.0        0.0        0.0        0.0        0.0        0.0        0.0        0.0        0.0        0.0      0.6       3.8       4.5       8.3      12.1    391.63
     7     5  2011    54     3     421.2     4.8      0.0    0.0    4.8    0.0      0.0      0.0   -9.90      0.1      0.1    100      0.3      0.3   100      0.4     0.4     100      2.7    0.80      5      0      0      0      0    87.6    87.6     88     1.02      0.3      0.3      0.3   100    16.9     3.354     3.2    0.109    0.128      93        0.11    0.000    0.000     421.2    265.2    0.80   265.2     400.0     312.0     278.4     225.0     213.7     184.0    0.000     0.000     0.000     0.000     0.000    0.80     0.00    0.00      0   -9.90   -9.00       27.9       22.6       23.2       35.4       39.0       39.0       39.0       39.0       39.0       39.0       39.0       39.0        0.0        0.0        0.0        0.0        0.0        0.0        0.0        0.0        0.0        0.0        0.0        0.0      4.8       2.0       4.9       7.7      10.4    391.63
     8     5  2011    55     3     419.3     0.1      0.0    0.0    0.1    0.0      0.0      0.0   -9.90      0.2      0.1     64      1.8      1.8   100      2.0     1.9      96      5.2    0.80      8      0      0      0      0    87.7    87.7     46     1.02      1.8      1.8      1.8   100    16.0     3.442     4.1    0.139    0.164      93        0.13    0.000    0.000     419.3    263.3    0.80   263.3     400.0     312.0     284.6     229.4     217.5     184.0    0.000     0.000     0.000     0.000     0.000    0.80     0.00    0.00      0   -9.90   -9.00       26.0       22.6       23.2       35.4       39.0       39.0       39.0       39.0       39.0       39.0       39.0       39.0        0.0        0.0        0.0        0.0        0.0        0.0        0.0        0.0        0.0        0.0        0.0        0.0      0.1       3.3       4.3      10.2      16.2    391.63
     9     5  2011    56     3     414.2     0.0      0.0    0.0    0.0    0.0      0.0      0.0   -9.90      0.3      0.1     25      5.1      5.1   100      5.4     5.2      96     11.5    0.80     16      0      0      0      0    87.7    87.7      0     1.02      5.1      5.1      5.1   100    15.2     3.596     5.0    0.181    0.213      93        0.17    0.000    0.000     414.2    258.2    0.80   258.2     400.0     312.0     292.8     235.2     222.4     184.0    0.000     0.000     0.000     0.000     0.000    0.80     0.00    0.00      0   -9.90   -9.00       21.9       22.6       22.8       34.8       39.0       39.0       39.0       39.0       39.0       39.0       39.0       39.0        0.0        0.0        0.0        0.0        0.0        0.0        0.0        0.0        0.0        0.0        0.0        0.0      0.0       5.0      10.5      16.5      22.5    391.63
    10     5  2011    57     3     409.1     0.1      0.0    0.0    0.1    0.0      0.0      0.0   -9.90      0.3      0.1     41      5.1      5.1   100      5.4     5.2      96     10.8    0.80     21      0      0      0      0    87.8    87.8      0     1.02      5.1      5.1      5.1   100    14.4     3.742     6.2    0.233    0.275      93        0.21    0.000    0.000     409.1    253.1    0.80   253.1     400.0     312.0     292.8     235.2     222.4     184.0    0.000     0.000     0.000     0.000     0.000    0.80     0.00    0.00      0   -9.90   -9.00       21.9       22.6       22.8       31.5       37.2       39.0       39.0       39.0       39.0       39.0       39.0       39.0        0.0        0.0        0.0        0.0        0.0        0.0        0.0        0.0        0.0        0.0        0.0        0.0      0.1       5.0      11.0      15.8      20.5    391.63
    11     5  2011    58     3     404.7     0.3      0.0    0.0    0.3    0.0      0.0      0.0   -9.90      0.3      0.3    100      4.3      4.3   100      4.6     4.6     100      9.8    0.80     -9      0      0      0      0    87.5    87.5      2     1.01      4.3      4.3      4.3   100    13.5     3.875     7.7    0.298    0.350      93        0.25    0.000    0.000     404.7    248.7    0.80   248.7     400.0     312.0     289.9     233.2     220.7     184.0    0.000     0.000     0.000     0.000     0.000    0.80     0.00    0.00      0   -9.90   -9.00       21.9       22.6       22.8       28.2       36.2       39.0       39.0       39.0       39.0       39.0       39.0       39.0        0.0        0.0        0.0        0.0        0.0        0.0        0.0        0.0        0.0        0.0        0.0        0.0      0.3       4.4       9.5      14.8      20.1    391.63
    12     5  2011    59     3     400.3     0.0      0.0    0.0    0.0    0.0      0.0      0.0   -9.90      0.3      0.0     17      4.4      4.4   100      4.7     4.5      95     10.5    0.80     -9      0      0      0      0    87.5    87.5      0     1.01      4.4      4.4      4.4   100    12.7     4.002     9.4    0.376    0.442      93        0.31    0.000    0.000     400.3    244.3    0.80   244.3     400.0     312.0     289.9     233.2     220.7     184.0    0.000     0.000     0.000     0.000     0.000    0.80     0.00    0.00      0   -9.90   -9.00       21.9       22.6       22.8       25.0       35.0       39.0       39.0       39.0       39.0       39.0       39.0       39.0        0.0        0.0        0.0        0.0        0.0        0.0        0.0        0.0        0.0        0.0        0.0        0.0      0.0       4.4       9.2      15.5      21.8    391.63
    13     5  2011    60     3     396.0     0.0      0.0    0.0    0.0    0.0      0.0      0.0   -9.90      0.3      0.0     13      4.2      4.2   100      4.5     4.3      95     11.4    0.80     -9      0      0      0      0    87.6    87.6      0     1.00      4.2      4.2      4.2   100    12.7     4.130    11.4    0.469    0.552      93        0.37    0.000    0.000     396.0    240.0    0.80   240.0     400.0     312.0     289.0     232.5     220.1     184.0    0.000     0.000     0.000     0.000     0.000    0.80     0.00    0.00      0   -9.90   -9.00       21.8       22.6       22.8       22.8       32.9       39.0       39.0       39.0       39.0       39.0       39.0       39.0        0.0        0.0        0.0        0.0        0.0        0.0        0.0        0.0        0.0        0.0        0.0        0.0      0.0       4.2       8.2      16.4      24.5    391.63
    14     5  2011    61     3     391.2     0.0      0.0    0.0    0.0    0.0      0.0      0.0   -9.90      0.3      0.0     13      4.8      4.8   100      5.1     4.9      95      9.9    0.80     -9      0      0      0      0    87.6    87.6      2     1.00      4.8      4.8      4.8   100    12.7     4.254    13.3    0.567    0.667      94        0.43    0.000    0.000     391.2    235.2    0.80   235.2     400.0     312.0     292.3     234.9     222.1     184.0    0.000     0.000     0.000     0.000     0.000    0.80     0.00    0.00      0   -9.90   -9.00       21.8       22.6       22.8       22.8       30.2       36.9       39.0       39.0       39.0       39.0       39.0       39.0        0.0        0.0        0.0        0.0        0.0        0.0        0.0        0.0        0.0        0.0        0.0        0.0      0.0       4.9       9.0      14.9      20.9    391.63
    15     5  2011    62     3     386.8     0.0      0.0    0.0    0.0    0.0      0.0      0.0   -9.90      0.3      0.0     13      4.3      4.3   100      4.6     4.3      95     10.6    0.80     -9      0      0      0      0    87.6    87.6      0     1.00      4.3      4.3      4.3   100    12.7     4.380    15.3    0.669    0.787      94        0.49    0.000    0.000     386.8    230.8    0.80   230.8     400.0     312.0     289.4     232.8     220.4     184.0    0.000     0.000     0.000     0.000     0.000    0.80     0.00    0.00      0   -9.90   -9.00       21.8       22.6       22.8       22.8       27.5       35.3       39.0       39.0       39.0       39.0       39.0       39.0        0.0        0.0        0.0        0.0        0.0        0.0        0.0        0.0        0.0        0.0        0.0        0.0      0.0       4.3       7.6      15.6      23.5    391.63
    16     5  2011    63     3     385.3     3.2      0.0    0.0    3.2    0.0      0.0      0.0   -9.90      0.3      0.3    100      4.4      4.4   100      4.7     4.7     100     13.6    0.80     -9      0      0      0      0    87.6    87.6      0     1.00      4.4      4.4      4.4   100    12.7     4.507    17.2    0.777    0.914      94        0.55    0.000    0.000     385.3    229.3    0.80   229.3     400.0     312.0     289.9     233.2     220.7     184.0    0.000     0.000     0.000     0.000     0.000    0.80     0.00    0.00      0   -9.90   -9.00       21.7       22.6       22.8       22.8       26.1       35.3       39.0       39.0       39.0       39.0       39.0       39.0        0.0        0.0        0.0        0.0        0.0        0.0        0.0        0.0        0.0        0.0        0.0        0.0      3.2       4.4      12.4      18.6      24.9    391.63
    17     5  2011    64     3     384.6     0.5      0.0    0.0    0.5    0.0      0.0      0.0   -9.90      0.1      0.1    100      1.2      1.2   100      1.3     1.3     100      8.4    0.80     -9      0      0      0      0    87.6    87.6      7     1.00      1.2      1.2      1.2   100    12.7     4.625    19.2    0.888    1.045      94        0.62    0.000    0.000     384.6    228.6    0.80   228.6     400.0     312.0     275.0     222.6     211.6     184.0    0.000     0.000     0.000     0.000     0.000    0.80     0.00    0.00      0   -9.90   -9.00       22.1       22.6       22.8       22.8       24.9       35.3       39.0       39.0       39.0       39.0       39.0       39.0        0.0        0.0        0.0        0.0        0.0        0.0        0.0        0.0        0.0        0.0        0.0        0.0      0.5       1.3      10.1      13.4      16.8    391.63
    18     5  2011    65     3     381.5     0.0      0.0    0.0    0.0    0.0      0.0      0.0   -9.90      0.2      0.2    100      2.9      2.9   100      3.1     3.1     100     11.8    0.80     -9      0      0      0      0    87.7    87.7      0     0.99      2.9      2.9      2.9   100    12.7     4.750    21.2    1.005    1.183      94        0.69    0.000    0.000     381.5    225.5    0.80   225.5     400.0     312.0     282.7     228.1     216.3     184.0    0.000     0.000     0.000     0.000     0.000    0.80     0.00    0.00      0   -9.90   -9.00       21.9       22.6       22.8       22.8       23.1       34.3       39.0       39.0       39.0       39.0       39.0       39.0        0.0        0.0        0.0        0.0        0.0        0.0        0.0        0.0        0.0        0.0        0.0        0.0      0.0       2.9       9.9      16.8      23.7    391.63
    19     5  2011    66     3     377.4     0.0      0.0    0.0    0.0    0.0      0.0      0.0   -9.90      0.3      0.2     78      4.8      3.9    82      5.1     4.1      81     13.6    0.80     -9     18      0      0      0    87.7    87.7      0     0.99      4.8      3.9      3.9    82    12.7     4.853    23.1    1.120    1.318      94        0.75    0.000    0.000     377.4    221.4    0.80   221.4     400.0     312.0     291.8     234.5     221.8     184.0    0.000     0.000     0.000     0.000     0.000    0.80     0.00    0.00      0   -9.90   -9.00       21.7       22.6       22.8       22.8       23.0       32.2       37.5       38.8       39.0       39.0       39.0       39.0        0.0        0.0        0.0        0.0        0.0        0.0        0.0        0.0        0.0        0.0        0.0        0.0      0.0       4.8      10.9      18.6      26.2    391.63
    20     5  2011    67     4     373.6     0.0      0.0    0.0    0.0    0.0      0.0      0.0   -9.90      0.3      0.0     13      5.1      3.7    72      5.5     3.7      68     15.7    0.80     -9     28      1      0      0    87.7    87.7      0     0.99      5.1      3.7      3.7    72    12.7     4.943    25.0    1.235    1.453      93        0.81    0.000    0.000     373.6    217.6    0.80   217.6     400.0     312.0     293.8     235.9     223.0     184.0    0.000     0.000     0.000     0.000     0.000    0.80     0.00    0.00      0   -9.90   -9.00       21.6       22.6       22.8       22.8       23.0       30.1       36.0       38.7       39.0       39.0       39.0       39.0        0.0        0.0        0.0        0.0        0.0        0.0        0.0        0.0        0.0        0.0        0.0        0.0      0.0       5.2      14.3      20.7      27.1    391.63
    21     5  2011    68     4     370.0     0.1      0.0    0.0    0.1    0.0      0.0      0.0   -9.90      0.4      0.1     37      5.6      3.5    63      6.0     3.7      61     15.9    0.80     -9     37      3      0      0    87.6    87.6      0     0.99      5.6      3.5      3.5    63    12.7     5.022    26.9    1.349    1.587      92        0.86    0.000    0.000     370.0    214.0    0.80   214.0     400.0     312.0     296.2     237.6     234.9     184.0    0.000     0.000     0.000     0.000     0.000    0.80     0.00    0.00      0   -9.90   -9.00       21.6       22.6       22.8       22.8       23.0       28.0       34.6       38.7       39.0       39.0       39.0       39.0        0.0        0.0        0.0        0.0        0.0        0.0        0.0        0.0        0.0        0.0        0.0        0.0      0.1       5.7      14.1      20.9      27.7    391.63
    22     5  2011    69     4     366.8     0.0      0.0    0.0    0.0    0.0      0.0      0.0   -9.90      0.4      0.0     13      5.7      3.2    56      6.1     3.2      53     16.0    0.80     -9     44      6      0      0    87.6    87.6      0     0.98      5.7      3.2      3.2    56    12.7     5.091    28.7    1.462    1.719      92        0.91    0.000    0.000     366.8    210.8    0.80   210.8     400.0     312.0     296.6     237.9     235.2     184.0    0.000     0.000     0.000     0.000     0.000    0.80     0.00    0.00      0   -9.90   -9.00       21.5       22.6       22.8       22.8       23.0       26.0       33.4       38.7       39.0       39.0       39.0       39.0        0.0        0.0        0.0        0.0        0.0        0.0        0.0        0.0        0.0        0.0        0.0        0.0      0.0       5.8      13.8      21.0      28.2    391.63
    23     5  2011    70     4     364.9     1.0      0.0    0.0    1.0    0.0      0.0      0.0   -9.90      0.3      0.3    100      4.8      2.6    54      5.1     2.9      57     16.1    0.80     -9     46      7      0      0    87.5    87.5      0     0.98      4.8      2.6      2.6    54    12.7     5.158    30.5    1.576    1.854      91        0.97    0.000    0.000     364.9    208.9    0.80   208.9     400.0     312.0     292.3     234.9     232.9     184.0    0.000     0.000     0.000     0.000     0.000    0.80     0.00    0.00      0   -9.90   -9.00       22.2       22.6       22.8       22.8       23.0       24.3       32.4       38.7       39.0       39.0       39.0       39.0        0.0        0.0        0.0        0.0        0.0        0.0        0.0        0.0        0.0        0.0        0.0        0.0      1.0       4.9      13.5      21.1      28.7    391.63
    24     5  2011    71     4     362.7     0.5      0.0    0.0    0.5    0.0      0.0      0.0   -9.90      0.3      0.3    100      4.9      2.4    49      5.2     2.7      52     17.1    0.80     -9     51      9      0      0    87.4    87.4      0     0.98      4.9      2.4      2.4    49    12.7     5.219    32.4    1.689    1.987      90        1.02    0.000    0.000     362.7    206.7    0.80   206.7     400.0     312.0     292.8     235.2     233.2     184.0    0.000     0.000     0.000     0.000     0.000    0.80     0.00    0.00      0   -9.90   -9.00       22.4       22.6       22.8       22.8       23.0       23.3       31.1       38.7       39.0       39.0       39.0       39.0        0.0        0.0        0.0        0.0        0.0        0.0        0.0        0.0        0.0        0.0        0.0        0.0      0.5       5.0      15.6      22.1      28.7    391.63
    25     5  2011    72     4     363.4     3.3      0.0    0.0    3.3    0.0      0.0      0.0   -9.90      0.3      0.3    100      4.5      2.3    52      4.8     2.6      55     14.8    0.80     -9     48      8      0      0    87.4    87.4      0     0.97      4.5      2.3      2.3    52    12.7     5.282    34.2    1.805    2.124      89        1.07    0.000    0.000     363.4    207.4    0.80   207.4     400.0     312.0     290.9     233.8     232.1     184.0    0.000     0.000     0.000     0.000     0.000    0.80     0.00    0.00      0   -9.90   -9.00       23.1       22.6       22.8       22.8       23.0       23.3       31.1       38.7       39.0       39.0       39.0       39.0        0.0        0.0        0.0        0.0        0.0        0.0        0.0        0.0        0.0        0.0        0.0        0.0      3.3       4.6      13.3      19.8      26.3    391.63
    26     5  2011    73     4     360.7     0.0      0.0    0.0    0.0    0.0      0.0      0.0   -9.90      0.4      0.4    100      5.1      2.3    44      5.5     2.6      48     11.1    0.80     -9     56     12      0      0    87.3    87.3      0     0.97      5.1      2.3      2.3    44    12.7     5.336    36.0    1.919    2.257      88        1.12    0.000    0.000     360.7    204.7    0.80   204.7     400.0     312.0     294.2     236.2     233.9     184.0    0.000     0.000     0.000     0.000     0.000    0.80     0.00    0.00      0   -9.90   -9.00       22.7       22.6       22.8       22.8       23.0       23.0       29.6       38.2       39.0       39.0       39.0       39.0        0.0        0.0        0.0        0.0        0.0        0.0        0.0        0.0        0.0        0.0        0.0        0.0      0.0       5.3      11.2      16.1      21.1    391.63
    27     5  2011    74     4     358.1     0.0      0.0    0.0    0.0    0.0      0.0      0.0   -9.90      0.4      0.4    100      6.0      2.2    37      6.4     2.6      41     12.2    0.80     -9     63     19      0      0    87.2    87.2      0     0.96      6.0      2.2      2.2    37    12.7     5.381    37.7    2.027    2.385      87        1.17    0.000    0.000     358.1    202.1    0.80   202.1     400.0     312.0     298.6     239.3     236.2     184.0    0.000     0.000     0.000     0.000     0.000    0.80     0.00    0.00      0   -9.90   -9.00       22.3       22.6       22.8       22.8       23.0       23.0       28.1       37.5       39.0       39.0       39.0       39.0        0.0        0.0        0.0        0.0        0.0        0.0        0.0        0.0        0.0        0.0        0.0        0.0      0.0       6.2      10.3      17.2      24.2    391.63
    28     5  2011    75     4     355.8     0.0      0.0    0.0    0.0    0.0      0.0      0.0   -9.90      0.4      0.4    100      6.0      1.9    32      6.5     2.4      36     13.5    0.80     -9     68     24      0      0    87.0    87.0      0     0.96      6.0      1.9      1.9    32    12.7     5.420    39.3    2.133    2.509      86        1.21    0.000    0.000     355.8    199.8    0.80   199.8     400.0     312.0     299.0     239.6     236.5     184.0    0.000     0.000     0.000     0.000     0.000    0.80     0.00    0.00      0   -9.90   -9.00       21.9       22.6       22.8       22.8       23.0       23.0       26.7       37.0       39.0       39.0       39.0       39.0        0.0        0.0        0.0        0.0        0.0        0.0        0.0        0.0        0.0        0.0        0.0        0.0      0.0       6.3      11.1      18.5      25.9    391.63
    29     5  2011    76     4     353.7     0.0      0.0    0.0    0.0    0.0      0.0      0.0   -9.90      0.4      0.4    100      5.7      1.6    28      6.1     2.0      33     14.0    0.80     -9     72     28      0      0    86.9    86.9      0     0.95      5.7      1.6      1.6    28    12.7     5.454    41.0    2.236    2.630      85        1.26    0.000    0.000     353.7    197.7    0.80   197.7     400.0     312.0     297.6     238.6     235.7     184.0    0.000     0.000     0.000     0.000     0.000    0.80     0.00    0.00      0   -9.90   -9.00       21.4       22.6       22.8       22.8       23.0       23.0       25.4       36.7       39.0       39.0       39.0       39.0        0.0        0.0        0.0        0.0        0.0        0.0        0.0        0.0        0.0        0.0        0.0        0.0      0.0       6.0      10.2      19.0      27.9    391.63
    30     5  2011    77     4     352.1     0.1      0.0    0.0    0.1    0.0      0.0      0.0   -9.90      0.5      0.2     30      6.6      1.6    24      7.1     1.7      24     16.8    0.80     -9     76     36      0      0    86.7    86.7      0     0.95      6.6      1.6      1.6    24    12.7     5.483    42.6    2.334    2.746      84        1.30    0.000    0.000     352.1    196.1    0.80   196.1     400.0     312.0     302.4     242.0     238.3     184.0    0.000     0.000     0.000     0.000     0.000    0.80     0.00    0.00      0   -9.90   -9.00       21.4       22.6       22.8       22.8       23.0       23.0       24.4       36.1       39.0       39.0       39.0       39.0        0.0        0.0        0.0        0.0        0.0        0.0        0.0        0.0        0.0        0.0        0.0        0.0      0.1       7.0      13.6      21.8      29.9    391.63
    31     5  2011    78     4     350.7     0.0      0.0    0.0    0.0    0.0      0.0      0.0   -9.90      0.5      0.1     12      6.6      1.4    21      7.1     1.4      20     17.4    0.80     -9     79     41      0      0    86.6    86.6      0     0.94      6.6      1.4      1.4    21    12.7     5.507    44.1    2.430    2.859      82        1.34    0.000    0.000     350.7    194.7    0.80   194.7     400.0     312.0     302.4     242.0     238.3     184.0    0.000     0.000     0.000     0.000     0.000    0.80     0.00    0.00      0   -9.90   -9.00       21.3       22.6       22.8       22.8       23.0       23.0       23.7       35.4       39.0       39.0       39.0       39.0        0.0        0.0        0.0        0.0        0.0        0.0        0.0        0.0        0.0        0.0        0.0        0.0      0.0       7.0      16.2      22.4      28.7    391.63
     1     6  2011    79     4     349.9     0.9      0.0    0.0    0.9    0.0      0.0      0.0   -9.90      0.5      0.5    100      6.2      1.2    20      6.7     1.7      25     17.5    0.80     -9     80     42      0      0    86.4    86.4      0     0.94      6.2      1.2      1.2    20    12.7     5.531    45.7    2.525    2.971      81        1.38    0.000    0.000     349.9    193.9    0.80   193.9     400.0     312.0     300.5     240.6     237.2     184.0    0.000     0.000     0.000     0.000     0.000    0.80     0.00    0.00      0   -9.90   -9.00       21.7       22.6       22.8       22.8       23.0       23.0       23.3       34.6       39.0       39.0       39.0       39.0        0.0        0.0        0.0        0.0        0.0        0.0        0.0        0.0        0.0        0.0        0.0        0.0      0.9       6.6      15.3      22.5      29.7    391.63
     2     6  2011    80     4     349.8     1.5      0.0    0.0    1.5    0.0      0.0      0.0   -9.90      0.4      0.4    100      5.4      1.1    20      5.8     1.5      26     18.7    0.80     -9     80     41      0      0    86.2    86.2      0     0.93      5.4      1.1      1.1    20    12.7     5.555    47.2    2.621    3.084      80        1.42    0.000    0.000     349.8    193.8    0.80   193.8     400.0     312.0     296.6     237.9     235.2     184.0    0.000     0.000     0.000     0.000     0.000    0.80     0.00    0.00      0   -9.90   -9.00       22.8       22.6       22.8       22.8       23.0       23.0       23.1       33.7       39.0       39.0       39.0       39.0        0.0        0.0        0.0        0.0        0.0        0.0        0.0        0.0        0.0        0.0        0.0        0.0      1.5       5.8      18.5      23.7      28.9    391.63
     3     6  2011    81     4     348.4     0.0      0.0    0.0    0.0    0.0      0.0      0.0   -9.90      0.5      0.5    100      6.1      1.0    16      6.6     1.5      22     18.5    0.80     -9     84     48      0      0    86.1    86.1      0     0.93      6.1      1.0      1.0    16    12.7     5.573    48.7    2.713    3.191      79        1.46    0.000    0.000     348.4    192.4    0.80   192.4     400.0     312.0     300.5     240.6     237.2     184.0    0.000     0.000     0.000     0.000     0.000    0.80     0.00    0.00      0   -9.90   -9.00       22.3       22.6       22.8       22.8       23.0       23.0       23.0       32.8       39.0       39.0       39.0       39.0        0.0        0.0        0.0        0.0        0.0        0.0        0.0        0.0        0.0        0.0        0.0        0.0      0.0       6.6      17.0      23.9      30.8    391.63

   Run:   2
   Day Month  Year   DAP Stage   WC(1.20)   Rain     Irri   Surf   Infilt   RO    Drain       CR    Zgwt       Ex       E     E/Ex     Trx       Tr  Tr/Trx    ETx      ET  ET/ETx      GD       Z     StExp  StSto  StSen StSalt StWeed   CC      CCw     StTr  Kc(Tr)     Trx       Tr      TrW  Tr/Trx   WP    Biomass     HI    Y(dry)  Y(fresh)  Brelative    WPet      Bin     Bout  WC(1.20) Wr(0.80)     Z       Wr    Wr(SAT)    Wr(FC)   Wr(exp)   Wr(sto)   Wr(sen)   Wr(PWP)    SaltIn    SaltOut   SaltUp   Salt(1.20)  SaltZ     Z       ECe    ECsw   StSalt  Zgwt    ECgw       WC01       WC 2       WC 3       WC 4       WC 5       WC 6       WC 7       WC 8       WC 9       WC10       WC11       WC12      ECe01      ECe 2      ECe 3      ECe 4      ECe 5      ECe 6      ECe 7      ECe 8      ECe 9      ECe10      ECe11      ECe12     Rain       ETo      Tmin      Tavg      Tmax      CO2
                                      mm      mm       mm     mm     mm     mm       mm       mm      m        mm       mm     %        mm       mm    %        mm      mm       %  degC-day     m       %      %      %      %      %      %       %       %       -        mm       mm       mm    %     g/m2    ton/ha      %    ton/ha   ton/ha       %       kg/m3   ton/ha   ton/ha      mm       mm       m       mm        mm        mm        mm        mm        mm         mm    ton/ha    ton/ha    ton/ha    ton/ha    ton/ha     m      dS/m    dS/m      %     m      dS/m       0.05       0.15       0.25       0.35       0.45       0.55       0.65       0.75       0.85       0.95       1.05       1.15       0.05       0.15       0.25       0.35       0.45       0.55       0.65       0.75       0.85       0.95       1.05       1.15       mm        mm     degC      degC      degC       ppm
    15     3  2012     1     1     465.9     0.0      0.0    0.0    0.0    0.0      0.0      0.0   -9.90      2.3      2.1     90      0.0      0.0   100      2.3     2.1      90      0.0    0.30     -9     -9     -9      0     -9     0.0     0.0      0    -9.00      0.0      0.0      0.0   100     0.0     0.000    -9.9    0.000    0.000      -9        0.00    0.000    0.000     465.9    309.9    0.30   114.9     150.0     117.0     109.8      84.5      83.4      69.0    0.000     0.000     0.000     0.000     0.000    0.30     0.00    0.00      0   -9.90   -9.00       36.9       39.0       39.0       39.0       39.0       39.0       39.0       39.0       39.0       39.0       39.0       39.0        0.0        0.0        0.0        0.0        0.0        0.0        0.0        0.0        0.0        0.0        0.0        0.0      0.0       2.1      -0.7       1.7       4.1    393.82
    16     3  2012     2     1     464.6     0.0      0.0    0.0    0.0    0.0      0.0      0.0   -9.90      1.8      1.3     76      0.0      0.0   100      1.8     1.3      76      0.0    0.30     -9     -9     -9      0     -9     0.0     0.0      0    -9.00      0.0      0.0      0.0   100     0.0     0.000    -9.9    0.000    0.000      -9        0.00    0.000    0.000     464.6    308.6    0.30   113.6     150.0     117.0     109.8      83.9      83.4      69.0    0.000     0.000     0.000     0.000     0.000    0.30     0.00    0.00      0   -9.90   -9.00       35.6       39.0       39.0       39.0       39.0       39.0       39.0       39.0       39.0       39.0       39.0       39.0        0.0        0.0        0.0        0.0        0.0        0.0        0.0        0.0        0.0        0.0        0.0        0.0      0.0       1.6      -2.4       2.6       7.6    393.82
    17     3  2012     3     1     462.9     0.0      0.0    0.0    0.0    0.0      0.0      0.0   -9.90      2.5      1.7     66      0.0      0.0   100      2.5     1.7      66      3.2    0.30     -9     -9     -9      0     -9     0.0     0.0      0    -9.00      0.0      0.0      0.0   100     0.0     0.000    -9.9    0.000    0.000      -9        0.00    0.000    0.000     462.9    306.9    0.30   111.9     150.0     117.0     109.8      84.8      83.4      69.0    0.000     0.000     0.000     0.000     0.000    0.30     0.00    0.00      0   -9.90   -9.00       33.9       39.0       39.0       39.0       39.0       39.0       39.0       39.0       39.0       39.0       39.0       39.0        0.0        0.0        0.0        0.0        0.0        0.0        0.0        0.0        0.0        0.0        0.0        0.0      0.0       2.3       0.8       8.2      15.6    393.82
    18     3  2012     4     1     461.1     0.0      0.0    0.0    0.0    0.0      0.0      0.0   -9.90      3.2      1.8     55      0.0      0.0   100      3.2     1.8      55      6.5    0.30     -9     -9     -9      0     -9     0.0     0.0      0    -9.00      0.0      0.0      0.0   100     0.0     0.000    -9.9    0.000    0.000      -9        0.00    0.000    0.000     461.1    305.1    0.30   110.1     150.0     117.0     109.8      85.5      83.4      69.0    0.000     0.000     0.000     0.000     0.000    0.30     0.00    0.00      0   -9.90   -9.00       32.1       39.0       39.0       39.0       39.0       39.0       39.0       39.0       39.0       39.0       39.0       39.0        0.0        0.0        0.0        0.0        0.0        0.0        0.0        0.0        0.0        0.0        0.0        0.0      0.0       2.9       3.2      11.5      19.8    393.82
[...]
    13     5  2019    60     3     426.5     0.0      0.0    0.0    0.0    0.0      0.0      0.0   -9.90      0.3      0.3    100      3.9      3.9   100      4.2     4.2     100     11.2    0.80     -9      0      0      0      0    87.5    87.5      0     1.00      3.9      3.9      3.9   100    13.2     4.476    11.2    0.503    0.592      90        0.42    0.000    0.000     426.5    270.5    0.80   270.5     400.0     312.0     287.5     231.5     219.2     184.0    0.000     0.000     0.000     0.000     0.000    0.80     0.00    0.00      0   -9.90   -9.00       26.7       28.4       23.0       36.4       39.0       39.0       39.0       39.0       39.0       39.0       39.0       39.0        0.0        0.0        0.0        0.0        0.0        0.0        0.0        0.0        0.0        0.0        0.0        0.0      0.0       3.9       9.1      16.2      23.4    410.00
    14     5  2019    61     3     425.3     2.1      0.0    0.0    2.1    0.0      0.0      0.0   -9.90      0.2      0.2    100      3.1      3.1   100      3.3     3.3     100     10.4    0.80     -9      0      0      0      0    87.5    87.5      0     1.00      3.1      3.1      3.1   100    13.2     4.607    13.2    0.608    0.715      91        0.50    0.000    0.000     425.3    269.3    0.80   269.3     400.0     312.0     283.7     228.8     216.9     184.0    0.000     0.000     0.000     0.000     0.000    0.80     0.00    0.00      0   -9.90   -9.00       25.5       28.4       23.0       36.4       39.0       39.0       39.0       39.0       39.0       39.0       39.0       39.0        0.0        0.0        0.0        0.0        0.0        0.0        0.0        0.0        0.0        0.0        0.0        0.0      2.1       3.1       9.7      15.4      21.2    410.00
    15     5  2019    62     3     429.6     7.7      0.0    0.0    7.7    0.0      0.0      0.0   -9.90      0.2      0.2    100      3.2      3.2   100      3.4     3.4     100     12.5    0.80     -9      0      0      0      0    87.6    87.6      0     0.99      3.2      3.2      3.2   100    13.2     4.738    15.1    0.717    0.843      91        0.57    0.000    0.000     429.6    273.6    0.80   273.6     400.0     312.0     284.2     229.1     217.2     184.0    0.000     0.000     0.000     0.000     0.000    0.80     0.00    0.00      0   -9.90   -9.00       29.8       28.4       23.0       36.4       39.0       39.0       39.0       39.0       39.0       39.0       39.0       39.0        0.0        0.0        0.0        0.0        0.0        0.0        0.0        0.0        0.0        0.0        0.0        0.0      7.7       3.2      13.7      17.5      21.4    410.00
    16     5  2019    63     3     430.3     3.7      0.0    0.0    3.7    0.0      0.0      0.0   -9.90      0.2      0.2    100      2.8      2.8   100      3.0     3.0     100     13.6    0.80     -9      0      0      0      0    87.6    87.6      0     0.99      2.8      2.8      2.8   100    13.2     4.869    17.1    0.831    0.978      91        0.65    0.000    0.000     430.3    274.3    0.80   274.3     400.0     312.0     282.2     227.7     216.0     184.0    0.000     0.000     0.000     0.000     0.000    0.80     0.00    0.00      0   -9.90   -9.00       30.5       28.4       23.0       36.4       39.0       39.0       39.0       39.0       39.0       39.0       39.0       39.0        0.0        0.0        0.0        0.0        0.0        0.0        0.0        0.0        0.0        0.0        0.0        0.0      3.7       2.8      15.2      18.6      22.1    410.00
    17     5  2019    64     3     425.8     0.0      0.0    0.0    0.0    0.0      0.0      0.0   -9.90      0.3      0.3    100      4.3      4.3   100      4.5     4.5     100     16.1    0.80     -9      0      0      0      0    87.6    87.6      0     0.99      4.3      4.3      4.3   100    13.2     4.999    19.0    0.951    1.119      91        0.72    0.000    0.000     425.8    269.8    0.80   269.8     400.0     312.0     289.4     232.8     220.4     184.0    0.000     0.000     0.000     0.000     0.000    0.80     0.00    0.00      0   -9.90   -9.00       26.0       28.4       23.0       36.4       39.0       39.0       39.0       39.0       39.0       39.0       39.0       39.0        0.0        0.0        0.0        0.0        0.0        0.0        0.0        0.0        0.0        0.0        0.0        0.0      0.0       4.3      13.9      21.1      28.4    410.00
    18     5  2019    65     3     451.8    32.0      0.0    0.0   29.7    2.3      0.0      0.0   -9.90      0.2      0.2    100      3.5      3.5   100      3.7     3.7     100     15.6    0.80     -9      0      0      0      0    87.6    87.6      0     0.99      3.5      3.5      3.5   100    13.2     5.130    21.0    1.076    1.265      91        0.79    0.000    0.000     451.8    295.8    0.80   295.8     400.0     312.0     285.6     230.1     218.0     184.0    0.000     0.000     0.000     0.000     0.000    0.80     0.00    0.00      0   -9.90   -9.00       46.3       34.0       23.0       36.4       39.0       39.0       39.0       39.0       39.0       39.0       39.0       39.0        0.0        0.0        0.0        0.0        0.0        0.0        0.0        0.0        0.0        0.0        0.0        0.0     32.0       3.5      16.0      20.6      25.3    410.00
    19     5  2019    66     3     447.1     0.0      0.0    0.0    0.0    0.0      0.0      0.0   -9.90      0.3      0.3    100      4.3      4.3   100      4.6     4.6     100     16.3    0.80     -9      0      0      0      0    87.6    87.6      0     0.99      4.3      4.3      4.3   100    13.2     5.260    22.9    1.205    1.418      91        0.85    0.000    0.000     447.1    291.1    0.80   291.1     400.0     312.0     289.9     233.2     220.7     184.0    0.000     0.000     0.000     0.000     0.000    0.80     0.00    0.00      0   -9.90   -9.00       38.6       37.1       23.0       36.4       39.0       39.0       39.0       39.0       39.0       39.0       39.0       39.0        0.0        0.0        0.0        0.0        0.0        0.0        0.0        0.0        0.0        0.0        0.0        0.0      0.0       4.4      15.4      21.3      27.2    410.00
    20     5  2019    67     4     447.4     4.7      0.0    0.0    4.6    0.1      0.0      0.0   -9.90      0.3      0.3    100      4.0      4.0   100      4.3     4.3     100     16.0    0.80     -9      0      0      0      0    87.6    87.6      0     0.98      4.0      4.0      4.0   100    13.2     5.389    24.9    1.340    1.576      92        0.92    0.000    0.000     447.4    291.4    0.80   291.4     400.0     312.0     288.5     232.1     219.8     184.0    0.000     0.000     0.000     0.000     0.000    0.80     0.00    0.00      0   -9.90   -9.00       38.9       37.1       23.0       36.4       39.0       39.0       39.0       39.0       39.0       39.0       39.0       39.0        0.0        0.0        0.0        0.0        0.0        0.0        0.0        0.0        0.0        0.0        0.0        0.0      4.7       4.1      16.9      21.0      25.1    410.00
    21     5  2019    68     4     449.3     6.0      0.0    0.0    5.7    0.3      0.0      0.0   -9.90      0.2      0.2    100      3.6      3.6   100      3.9     3.9     100     12.1    0.80     -9      0      0      0      0    87.7    87.7      0     0.98      3.6      3.6      3.6   100    13.2     5.519    26.8    1.479    1.740      92        0.99    0.000    0.000     449.3    293.3    0.80   293.3     400.0     312.0     286.6     230.8     218.6     184.0    0.000     0.000     0.000     0.000     0.000    0.80     0.00    0.00      0   -9.90   -9.00       40.7       37.1       23.0       36.4       39.0       39.0       39.0       39.0       39.0       39.0       39.0       39.0        0.0        0.0        0.0        0.0        0.0        0.0        0.0        0.0        0.0        0.0        0.0        0.0      6.0       3.7      11.1      17.1      23.2    410.00
    22     5  2019    69     4     445.1     0.0      0.0    0.0    0.0    0.0      0.0      0.0   -9.90      0.3      0.3    100      3.9      3.9   100      4.2     4.2     100     12.0    0.80     -9      0      0      0      0    87.7    87.7      0     0.98      3.9      3.9      3.9   100    13.2     5.648    28.7    1.624    1.910      92        1.06    0.000    0.000     445.1    289.1    0.80   289.1     400.0     312.0     288.0     231.8     219.5     184.0    0.000     0.000     0.000     0.000     0.000    0.80     0.00    0.00      0   -9.90   -9.00       35.8       37.8       23.0       36.4       39.0       39.0       39.0       39.0       39.0       39.0       39.0       39.0        0.0        0.0        0.0        0.0        0.0        0.0        0.0        0.0        0.0        0.0        0.0        0.0      0.0       4.0      10.8      17.0      23.1    410.00
    23     5  2019    70     4     440.9     0.0      0.0    0.0    0.0    0.0      0.0      0.0   -9.90      0.3      0.3    100      3.9      3.9   100      4.2     4.2     100     13.3    0.80     -9      0      0      0      0    87.7    87.7      0     0.98      3.9      3.9      3.9   100    13.2     5.777    30.7    1.773    2.086      92        1.12    0.000    0.000     440.9    284.9    0.80   284.9     400.0     312.0     288.0     231.8     219.5     184.0    0.000     0.000     0.000     0.000     0.000    0.80     0.00    0.00      0   -9.90   -9.00       31.7       37.8       23.0       36.4       39.0       39.0       39.0       39.0       39.0       39.0       39.0       39.0        0.0        0.0        0.0        0.0        0.0        0.0        0.0        0.0        0.0        0.0        0.0        0.0      0.0       4.0      11.8      18.3      24.8    410.00
    24     5  2019    71     4     442.6     5.5      0.0    0.0    5.5    0.0      0.0      0.0   -9.90      0.2      0.2    100      3.6      3.6   100      3.8     3.8     100     13.1    0.80     -9      0      0      0      0    87.7    87.7      0     0.97      3.6      3.6      3.6   100    13.2     5.905    32.6    1.927    2.268      92        1.19    0.000    0.000     442.6    286.6    0.80   286.6     400.0     312.0     286.6     230.8     218.6     184.0    0.000     0.000     0.000     0.000     0.000    0.80     0.00    0.00      0   -9.90   -9.00       33.3       37.8       23.0       36.4       39.0       39.0       39.0       39.0       39.0       39.0       39.0       39.0        0.0        0.0        0.0        0.0        0.0        0.0        0.0        0.0        0.0        0.0        0.0        0.0      5.5       3.7      12.9      18.1      23.2    410.00
    25     5  2019    72     4     447.0     7.8      0.0    0.0    7.7    0.1      0.0      0.0   -9.90      0.2      0.2    100      3.0      3.0   100      3.2     3.2     100     12.4    0.80     -9      0      0      0      0    87.7    87.7      0     0.97      3.0      3.0      3.0   100    13.2     6.033    34.6    2.087    2.455      92        1.27    0.000    0.000     447.0    291.0    0.80   291.0     400.0     312.0     283.7     228.8     216.9     184.0    0.000     0.000     0.000     0.000     0.000    0.80     0.00    0.00      0   -9.90   -9.00       37.8       37.8       23.0       36.4       39.0       39.0       39.0       39.0       39.0       39.0       39.0       39.0        0.0        0.0        0.0        0.0        0.0        0.0        0.0        0.0        0.0        0.0        0.0        0.0      7.8       3.1      12.8      17.4      21.9    410.00
    26     5  2019    73     4     442.4     0.0      0.0    0.0    0.0    0.0      0.0      0.0   -9.90      0.3      0.3    100      4.4      4.4   100      4.7     4.7     100     14.3    0.80     -9      0      0      0      0    87.7    87.7      0     0.97      4.4      4.4      4.4   100    13.2     6.161    36.5    2.251    2.648      92        1.33    0.000    0.000     442.4    286.4    0.80   286.4     400.0     312.0     290.4     233.5     220.9     184.0    0.000     0.000     0.000     0.000     0.000    0.80     0.00    0.00      0   -9.90   -9.00       33.1       37.8       23.0       36.4       39.0       39.0       39.0       39.0       39.0       39.0       39.0       39.0        0.0        0.0        0.0        0.0        0.0        0.0        0.0        0.0        0.0        0.0        0.0        0.0      0.0       4.5      14.1      19.3      24.5    410.00
    27     5  2019    74     4     436.9     0.0      0.0    0.0    0.0    0.0      0.0      0.0   -9.90      0.3      0.3    100      5.1      5.1   100      5.5     5.5     100     15.2    0.80     -9      0      0      0      0    87.7    87.7      0     0.97      5.1      5.1      5.1   100    13.2     6.289    38.5    2.420    2.847      93        1.38    0.000    0.000     436.9    280.9    0.80   280.9     400.0     312.0     294.2     236.2     223.3     184.0    0.000     0.000     0.000     0.000     0.000    0.80     0.00    0.00      0   -9.90   -9.00       27.7       37.8       23.0       36.4       39.0       39.0       39.0       39.0       39.0       39.0       39.0       39.0        0.0        0.0        0.0        0.0        0.0        0.0        0.0        0.0        0.0        0.0        0.0        0.0      0.0       5.3      12.9      20.2      27.5    410.00
    28     5  2019    75     4     430.0     0.0      0.0    0.0    0.0    0.0      0.0      0.0   -9.90      0.4      0.4    100      6.5      6.5   100      6.9     6.9     100     16.6    0.80     -9      0      0      0      0    87.7    87.7      0     0.97      6.5      6.5      6.5   100    13.2     6.416    40.4    2.593    3.051      93        1.43    0.000    0.000     430.0    274.0    0.80   274.0     400.0     312.0     301.0     241.0     227.3     184.0    0.000     0.000     0.000     0.000     0.000    0.80     0.00    0.00      0   -9.90   -9.00       22.8       35.8       23.0       36.4       39.0       39.0       39.0       39.0       39.0       39.0       39.0       39.0        0.0        0.0        0.0        0.0        0.0        0.0        0.0        0.0        0.0        0.0        0.0        0.0      0.0       6.7      16.3      21.6      27.0    410.00
    29     5  2019    76     4     426.2     0.0      0.0    0.0    0.0    0.0      0.0      0.0   -9.90      0.2      0.2    100      3.6      3.6   100      3.8     3.8     100     15.4    0.80     -9      0      0      0      0    87.7    87.7      0     0.96      3.6      3.6      3.6   100    13.2     6.543    42.4    2.772    3.261      93        1.49    0.000    0.000     426.2    270.2    0.80   270.2     400.0     312.0     286.6     230.8     218.6     184.0    0.000     0.000     0.000     0.000     0.000    0.80     0.00    0.00      0   -9.90   -9.00       22.5       32.3       23.0       36.4       39.0       39.0       39.0       39.0       39.0       39.0       39.0       39.0        0.0        0.0        0.0        0.0        0.0        0.0        0.0        0.0        0.0        0.0        0.0        0.0      0.0       3.7      15.4      20.4      25.4    410.00
    30     5  2019    77     4     431.9     9.1      0.0    0.0    9.1    0.0      0.0      0.0   -9.90      0.2      0.2    100      3.2      3.2   100      3.4     3.4     100     15.1    0.80     -9      0      0      0      0    87.7    87.7      0     0.96      3.2      3.2      3.2   100    13.2     6.670    44.3    2.955    3.477      93        1.56    0.000    0.000     431.9    275.9    0.80   275.9     400.0     312.0     284.6     229.4     217.5     184.0    0.000     0.000     0.000     0.000     0.000    0.80     0.00    0.00      0   -9.90   -9.00       28.3       32.3       23.0       36.4       39.0       39.0       39.0       39.0       39.0       39.0       39.0       39.0        0.0        0.0        0.0        0.0        0.0        0.0        0.0        0.0        0.0        0.0        0.0        0.0      9.1       3.3      15.7      20.1      24.6    410.00
    31     5  2019    78     4     437.9     9.0      0.0    0.0    9.0    0.0      0.0      0.0   -9.90      0.2      0.2    100      2.8      2.8   100      3.0     3.0     100     14.6    0.80     -9      0      0      0      0    87.7    87.7      0     0.96      2.8      2.8      2.8   100    13.2     6.796    46.3    3.143    3.698      93        1.64    0.000    0.000     437.9    281.9    0.80   281.9     400.0     312.0     282.7     228.1     216.3     184.0    0.000     0.000     0.000     0.000     0.000    0.80     0.00    0.00      0   -9.90   -9.00       34.3       32.3       23.0       36.4       39.0       39.0       39.0       39.0       39.0       39.0       39.0       39.0        0.0        0.0        0.0        0.0        0.0        0.0        0.0        0.0        0.0        0.0        0.0        0.0      9.0       2.9      16.0      19.6      23.3    410.00
     1     6  2019    79     4     454.8    24.4      0.0    0.0   20.8    3.6      0.0      0.0   -9.90      0.2      0.2    100      3.6      3.6   100      3.9     3.9     100     14.8    0.80     -9      0      0      0      0    87.7    87.7      0     0.96      3.6      3.6      3.6   100    13.2     6.922    48.2    3.336    3.925      93        1.70    0.000    0.000     454.8    298.8    0.80   298.8     400.0     312.0     287.0     231.1     218.9     184.0    0.000     0.000     0.000     0.000     0.000    0.80     0.00    0.00      0   -9.90   -9.00       46.1       37.3       23.0       36.4       39.0       39.0       39.0       39.0       39.0       39.0       39.0       39.0        0.0        0.0        0.0        0.0        0.0        0.0        0.0        0.0        0.0        0.0        0.0        0.0     24.4       3.8      14.7      19.8      24.8    410.00
     2     6  2019    80     4     450.1     0.0      0.0    0.0    0.0    0.0      0.0      0.0   -9.90      0.3      0.3    100      4.4      4.4   100      4.7     4.7     100     15.4    0.80     -9      0     -9      0      0    87.6    87.6      0     0.95      4.4      4.4      4.4   100    13.2     7.047    50.1    3.534    4.157      93        1.76    0.000    0.000     450.1    294.1    0.80   294.1     400.0     312.0     290.9     233.8     221.2     184.0    0.000     0.000     0.000     0.000     0.000    0.80     0.00    0.00      0   -9.90   -9.00       38.4       39.8       23.6       36.4       39.0       39.0       39.0       39.0       39.0       39.0       39.0       39.0        0.0        0.0        0.0        0.0        0.0        0.0        0.0        0.0        0.0        0.0        0.0        0.0      0.0       4.6      14.0      20.4      26.8    410.00
     3     6  2019    81     4     453.7     8.1      0.0    0.0    7.4    0.7      0.0      0.0   -9.90      0.3      0.3    100      3.6      3.6   100      3.8     3.8     100     16.4    0.80     -9      0     -9      0      0    87.4    87.4      0     0.95      3.6      3.6      3.6   100    13.2     7.172    52.1    3.736    4.395      93        1.83    0.000    0.000     453.7    297.7    0.80   297.7     400.0     312.0     287.0     231.1     218.9     184.0    0.000     0.000     0.000     0.000     0.000    0.80     0.00    0.00      0   -9.90   -9.00       42.0       39.5       23.9       36.4       39.0       39.0       39.0       39.0       39.0       39.0       39.0       39.0        0.0        0.0        0.0        0.0        0.0        0.0        0.0        0.0        0.0        0.0        0.0        0.0      8.1       3.8      16.8      21.4      25.9    410.00
