AquaCrop 7.0 (August 2022) - Output created on (date) : 23-11-2022   at (time) : 13:03:13

    RunNr     Day1   Month1    Year1     Rain      ETo       GD     CO2      Irri   Infilt   Runoff    Drain   Upflow        E     E/Ex       Tr      TrW   Tr/Trx    SaltIn   SaltOut    SaltUp  SaltProf     Cycle   SaltStr  FertStr  WeedStr  TempStr   ExpStr   StoStr  BioMass  Brelative   HI    Y(dry)  Y(fresh)    WPet      Bin     Bout     DayN   MonthN    YearN
                                           mm       mm  degC.day    ppm        mm       mm       mm       mm       mm       mm        %       mm       mm        %    ton/ha    ton/ha    ton/ha    ton/ha      days       %        %        %        %        %        %    ton/ha        %       %    ton/ha   ton/ha    kg/m3   ton/ha   ton/ha
   Tot(1)       22        5     1981    131.8    514.9   1295.7   340.11      0.0    131.0      0.8      0.0      0.0    103.1       43    242.3    241.5       87     0.000     0.000     0.000     0.000      107        0        0        0        8        8       10    16.780       78     40.1    6.732   -9.900     1.95    0.000    0.000       11        9     1981  Maize_short_Cahul_22May_Optimum_85_MPI.PRM
   Tot(2)       22        5     1982    240.1    482.2   1316.7   341.22      0.0    239.1      1.0      0.0      0.0    135.6       61    275.4    273.7      100     0.000     0.000     0.000     0.000      107        0        0        0        5        3        0    21.610       96     40.1    8.659   -9.900     2.11    0.000    0.000       11        9     1982  Maize_short_Cahul_22May_Optimum_85_MPI.PRM
   Tot(3)       22        5     1983    279.5    484.1   1295.1   342.84      0.0    252.0     27.5     32.8      0.0    123.2       58    279.7    279.7      100     0.000     0.000     0.000     0.000      107        0        0        0        7        5        0    20.958       95     40.2    8.422   -9.900     2.09    0.000    0.000       11        9     1983  Maize_short_Cahul_22May_Optimum_85_MPI.PRM
   Tot(4)       22        5     1984    165.7    468.8   1167.8   344.40      0.0    165.3      0.4      0.0      0.0    136.8       66    242.9    244.6       92     0.000     0.000     0.000     0.000      107        0        0        0       11        5        7    18.697       87     40.1    7.492   -9.900     1.97    0.000    0.000       11        9     1984  Maize_short_Cahul_22May_Optimum_85_MPI.PRM
   Tot(5)       22        5     1985    327.9    481.2   1222.6   345.87      0.0    296.5     31.4     47.4      0.0    134.3       67    278.4    277.7       98     0.000     0.000     0.000     0.000      107        0        0        0       12        3        1    20.283       95     40.1    8.143   -9.900     1.97    0.000    0.000       11        9     1985  Maize_short_Cahul_22May_Optimum_85_MPI.PRM
   Tot(6)       22        5     1986    159.8    540.0   1341.9   347.19      0.0    158.4      1.4      1.2      0.0    122.8       49    246.5    247.1       84     0.000     0.000     0.000     0.000      107        0        0        0        6       11       12    16.625       75     40.0    6.653   -9.900     1.80    0.000    0.000       11        9     1986  Maize_short_Cahul_22May_Optimum_85_MPI.PRM
   Tot(7)       22        5     1987    237.0    495.2   1234.6   348.98      0.0    226.5     10.5      5.8      0.0    111.8       54    293.7    292.6      100     0.000     0.000     0.000     0.000      107        0        0        0       10        4        0    20.802       96     40.2    8.362   -9.900     2.06    0.000    0.000       11        9     1987  Maize_short_Cahul_22May_Optimum_85_MPI.PRM
   Tot(8)       22        5     1988    215.6    496.5   1322.9   351.45      0.0    198.9     16.7     20.3      0.0    136.2       59    210.5    212.3       80     0.000     0.000     0.000     0.000      107        0        0        0        8       15       16    13.431       61     40.0    5.376   -9.900     1.55    0.000    0.000       11        9     1988  Maize_short_Cahul_22May_Optimum_85_MPI.PRM
   Tot(9)       22        5     1989    278.3    464.8   1227.8   352.89      0.0    269.4      8.9      0.8      0.0    130.8       68    277.9    276.5       98     0.000     0.000     0.000     0.000      107        0        0        0       11        5        1    20.634       94     40.1    8.276   -9.900     2.02    0.000    0.000       11        9     1989  Maize_short_Cahul_22May_Optimum_85_MPI.PRM
  Tot(10)       22        5     1990    134.6    519.4   1222.9   354.16      0.0    133.4      1.2      4.2      0.0    134.3       52    210.8    212.4       82     0.000     0.000     0.000     0.000      105        0        0        0       11       20       18    13.755       62     40.0    5.508   -9.900     1.60    0.000    0.000       11        9     1990  Maize_short_Cahul_22May_Optimum_85_MPI.PRM
  Tot(11)       22        5     1991    339.7    442.2   1261.6   355.48      0.0    294.4     45.3     75.9      0.0    115.8       67    276.1    274.2      100     0.000     0.000     0.000     0.000      107        0        0        0       10        2        0    21.539       97     40.1    8.636   -9.900     2.20    0.000    0.000       11        9     1991  Maize_short_Cahul_22May_Optimum_85_MPI.PRM
  Tot(12)       22        5     1992    172.1    523.4   1310.7   356.27      0.0    171.3      0.8      0.0      0.0    144.3       66    238.3    239.0       79     0.000     0.000     0.000     0.000      107        0        0        0        8       14       15    15.310       68     39.8    6.099   -9.900     1.59    0.000    0.000       11        9     1992  Maize_short_Cahul_22May_Optimum_85_MPI.PRM
  Tot(13)       22        5     1993    184.6    515.2   1213.1   356.95      0.0    177.7      6.9     14.6      0.0    114.5       50    251.4    250.8       90     0.000     0.000     0.000     0.000      107        0        0        0       12        7        7    17.190       83     40.1    6.897   -9.900     1.88    0.000    0.000       11        9     1993  Maize_short_Cahul_22May_Optimum_85_MPI.PRM
  Tot(14)       22        5     1994    229.2    520.8   1387.8   358.63      0.0    210.6     18.6     40.3      0.0    104.3       44    270.1    270.5       90     0.000     0.000     0.000     0.000      107        0        0        0        7        9        8    18.841       81     40.2    7.580   -9.900     2.02    0.000    0.000       11        9     1994  Maize_short_Cahul_22May_Optimum_85_MPI.PRM
  Tot(15)       22        5     1995    194.2    524.5   1401.1   360.62      0.0    189.8      4.4      0.3      0.0    116.9       46    243.9    243.6       88     0.000     0.000     0.000     0.000      107        0        0        0        3       13        9    16.803       74     40.3    6.767   -9.900     1.88    0.000    0.000       11        9     1995  Maize_short_Cahul_22May_Optimum_85_MPI.PRM
  Tot(16)       22        5     1996    152.9    537.6   1282.2   362.37      0.0    143.3      9.6      0.4      0.0     97.4       31    204.1    205.2       87     0.000     0.000     0.000     0.000      107        0        0        0        9       27        7    14.129       65     40.7    5.751   -9.900     1.91    0.000    0.000       11        9     1996  Maize_short_Cahul_22May_Optimum_85_MPI.PRM
  Tot(17)       22        5     1997    432.8    444.0   1221.9   363.47      0.0    383.5     49.3     17.3      0.0    148.6       78    259.9    259.2      100     0.000     0.000     0.000     0.000      107        0        0        0       10        1        0    21.660       97     40.0    8.668   -9.900     2.12    0.000    0.000       11        9     1997  Maize_short_Cahul_22May_Optimum_85_MPI.PRM
  Tot(18)       22        5     1998    180.5    509.6   1309.0   366.50      0.0    177.7      2.8      0.0      0.0    130.0       58    239.8    239.7       85     0.000     0.000     0.000     0.000      107        0        0        0        8        8       11    15.759       73     40.0    6.303   -9.900     1.70    0.000    0.000       11        9     1998  Maize_short_Cahul_22May_Optimum_85_MPI.PRM
  Tot(19)       22        5     1999    308.1    540.3   1455.6   368.14      0.0    295.8     12.3     14.0      0.0    143.6       56    302.8    301.2       99     0.000     0.000     0.000     0.000      107        0        0        0        3       11        1    21.267       92     40.6    8.645   -9.900     1.94    0.000    0.000       11        9     1999  Maize_short_Cahul_22May_Optimum_85_MPI.PRM
  Tot(20)       22        5     2000    130.9    589.8   1344.8   369.41      0.0    120.7     10.2      0.0      0.0     97.4       28    199.7    202.3       79     0.000     0.000     0.000     0.000      107        0        0        0        7       21       16    12.156       54     40.0    4.866   -9.900     1.64    0.000    0.000       11        9     2000  Maize_short_Cahul_22May_Optimum_85_MPI.PRM
  Tot(21)       22        5     2001    279.5    543.9   1369.9   371.07      0.0    230.6     48.9     24.2      0.0    149.2       55    207.6    207.9       77     0.000     0.000     0.000     0.000       99        0        0        0        6       18       20    12.713       55     35.9    4.565   -9.900     1.32    0.000    0.000       11        9     2001  Maize_short_Cahul_22May_Optimum_85_MPI.PRM
  Tot(22)       22        5     2002    292.1    558.8   1450.8   373.16      0.0    255.3     36.8      0.0      0.0    114.8       41    303.8    301.7      100     0.000     0.000     0.000     0.000      107        0        0        0        4       15        0    20.987       88     40.0    8.396   -9.900     2.01    0.000    0.000       11        9     2002  Maize_short_Cahul_22May_Optimum_85_MPI.PRM
  Tot(23)       22        5     2003    116.6    575.5   1394.8   375.80      0.0    116.5      0.1      0.0      0.0    105.7       34    221.9    223.7       82     0.000     0.000     0.000     0.000      107        0        0        0        6       17       16    14.768       65     39.7    5.864   -9.900     1.79    0.000    0.000       11        9     2003  Maize_short_Cahul_22May_Optimum_85_MPI.PRM
  Tot(24)       22        5     2004    264.5    517.1   1270.8   377.49      0.0    258.7      5.8      1.7      0.0    127.4       55    294.4    294.3      100     0.000     0.000     0.000     0.000      107        0        0        0        9        6        0    21.236       95     40.2    8.535   -9.900     2.02    0.000    0.000       11        9     2004  Maize_short_Cahul_22May_Optimum_85_MPI.PRM
  Tot(25)       22        5     2005    340.5    530.1   1378.5   379.80      0.0    324.9     15.6      7.2      0.0    155.4       67    317.3    314.7      100     0.000     0.000     0.000     0.000      107        0        0        0        5        2        0    22.748       97     40.0    9.107   -9.900     1.93    0.000    0.000       11        9     2005  Maize_short_Cahul_22May_Optimum_85_MPI.PRM
  Tot(26)       22        5     2006    165.3    572.9   1356.3   381.90      0.0    162.9      2.4      0.0      0.0    124.3       41    230.5    232.4       82     0.000     0.000     0.000     0.000      107        0        0        0        7       27       12    14.781       64     40.6    6.000   -9.900     1.69    0.000    0.000       11        9     2006  Maize_short_Cahul_22May_Optimum_85_MPI.PRM
  Tot(27)       22        5     2007    154.6    656.0   1505.6   383.77      0.0    153.3      1.3      0.0      0.0    127.0       32    225.1    224.7       80     0.000     0.000     0.000     0.000      107        0        0        0        3       31       12    12.953       56     40.5    5.250   -9.900     1.49    0.000    0.000       11        9     2007  Maize_short_Cahul_22May_Optimum_85_MPI.PRM
  Tot(28)       22        5     2008    135.9    609.6   1430.9   385.59      0.0    135.2      0.7      0.6      0.0    124.8       39    228.9    230.0       78     0.000     0.000     0.000     0.000      107        0        0        0        3       20       19    13.684       58     39.6    5.425   -9.900     1.53    0.000    0.000       11        9     2008  Maize_short_Cahul_22May_Optimum_85_MPI.PRM
  Tot(29)       22        5     2009    193.1    608.5   1428.8   387.37      0.0    186.0      7.1      0.0      0.0    132.2       42    241.1    240.7       81     0.000     0.000     0.000     0.000      107        0        0        0        4       18       16    14.136       60     40.1    5.670   -9.900     1.52    0.000    0.000       11        9     2009  Maize_short_Cahul_22May_Optimum_85_MPI.PRM
  Tot(30)       22        5     2010    262.4    544.9   1456.8   389.85      0.0    244.4     18.0     23.9      0.0    128.7       53    284.3    283.2       90     0.000     0.000     0.000     0.000      107        0        0        0        5        4        7    19.216       83     39.8    7.647   -9.900     1.85    0.000    0.000       11        9     2010  Maize_short_Cahul_22May_Optimum_85_MPI.PRM
  Tot(31)       22        5     2011    160.8    575.7   1434.7   391.63      0.0    157.7      3.1      5.8      0.0    126.0       47    245.7    247.2       78     0.000     0.000     0.000     0.000      107        0        0        0        3       14       18    15.775       67     39.7    6.267   -9.900     1.69    0.000    0.000       11        9     2011  Maize_short_Cahul_22May_Optimum_85_MPI.PRM
  Tot(32)       22        5     2012    196.3    639.5   1494.0   393.82      0.0    189.7      6.6      8.8      0.0    148.0       47    246.7    246.5       76     0.000     0.000     0.000     0.000      107        0        0        0        3       24       19    13.737       58     40.2    5.516   -9.900     1.40    0.000    0.000       11        9     2012  Maize_short_Cahul_22May_Optimum_85_MPI.PRM
  Tot(33)       22        5     2013    252.7    563.0   1428.9   396.48      0.0    239.0     13.7     14.7      0.0    144.5       57    275.7    274.9       86     0.000     0.000     0.000     0.000      107        0        0        0        3        8       10    18.220       77     40.0    7.293   -9.900     1.74    0.000    0.000       11        9     2013  Maize_short_Cahul_22May_Optimum_85_MPI.PRM
  Tot(34)       22        5     2014    196.3    573.6   1463.6   398.55      0.0    193.6      2.7      4.1      0.0    147.2       60    268.2    269.0       80     0.000     0.000     0.000     0.000      107        0        0        0        3       10       16    17.068       71     39.6    6.758   -9.900     1.63    0.000    0.000       11        9     2014  Maize_short_Cahul_22May_Optimum_85_MPI.PRM
  Tot(35)       22        5     2015    138.9    636.7   1471.6   402.00      0.0    136.7      2.2      0.0      0.0    116.3       36    235.7    235.8       74     0.000     0.000     0.000     0.000      107        0        0        0        4       20       19    13.888       58     40.0    5.549   -9.900     1.58    0.000    0.000       11        9     2015  Maize_short_Cahul_22May_Optimum_85_MPI.PRM
  Tot(36)       22        5     2016    164.9    587.5   1485.2   404.00      0.0    161.0      3.9      8.4      0.0    156.6       54    214.7    215.0       73     0.000     0.000     0.000     0.000      107        0        0        0        3       24       23    12.853       53     39.8    5.118   -9.900     1.38    0.000    0.000       11        9     2016  Maize_short_Cahul_22May_Optimum_85_MPI.PRM
  Tot(37)       22        5     2017    244.3    575.3   1442.4   407.00      0.0    217.3     27.0      1.4      0.0    121.3       49    311.7    310.9       91     0.000     0.000     0.000     0.000      107        0        0        0        3        6        9    19.945       84     39.9    7.961   -9.900     1.84    0.000    0.000       11        9     2017  Maize_short_Cahul_22May_Optimum_85_MPI.PRM
  Tot(38)       22        5     2018    162.1    570.8   1538.6   410.00      0.0    157.2      4.9      0.0      0.0     92.0       33    276.6    277.0       88     0.000     0.000     0.000     0.000      107        0        0        0        2        8       10    19.136       79     39.6    7.587   -9.900     2.06    0.000    0.000       11        9     2018  Maize_short_Cahul_22May_Optimum_85_MPI.PRM
  Tot(39)       22        5     2019    162.8    617.9   1528.8   413.00      0.0    161.5      1.3      0.0      0.0    164.0       51    219.7    220.3       76     0.000     0.000     0.000     0.000      105        0        0        0        1       20       21    13.858       57     39.4    5.460   -9.900     1.42    0.000    0.000       11        9     2019  Maize_short_Cahul_22May_Optimum_85_MPI.PRM
  Tot(40)       22        5     2020    130.3    510.2   1223.5   416.00      0.0    129.8      0.5      1.2      0.0     95.3       41    235.3    234.9       86     0.000     0.000     0.000     0.000      107        0        0        0       13       12        9    16.464       75     40.3    6.633   -9.900     2.01    0.000    0.000       11        9     2020  Maize_short_Cahul_22May_Optimum_85_MPI.PRM
  Tot(41)       22        5     2021    177.2    471.8   1131.0   419.00      0.0    173.7      3.5      7.5      0.0    112.1       57    258.5    257.3       95     0.000     0.000     0.000     0.000      107        0        0        0       15        3        4    19.789       90     40.0    7.922   -9.900     2.14    0.000    0.000       11        9     2021  Maize_short_Cahul_22May_Optimum_85_MPI.PRM
  Tot(42)       22        5     2022    136.0    511.2   1229.6   422.00      0.0    134.6      1.4      1.0      0.0    130.8       57    219.6    221.1       82     0.000     0.000     0.000     0.000      107        0        0        0        9        9       17    15.635       68     39.8    6.216   -9.900     1.77    0.000    0.000       11        9     2022  Maize_short_Cahul_22May_Optimum_85_MPI.PRM
  Tot(43)       22        5     2023    258.8    494.9   1178.5   425.00      0.0    217.0     41.8      0.0      0.0     81.6       35    264.4    262.7      100     0.000     0.000     0.000     0.000      107        0        0        0       13        9        0    20.695       92     40.0    8.278   -9.900     2.39    0.000    0.000       11        9     2023  Maize_short_Cahul_22May_Optimum_85_MPI.PRM
  Tot(44)       22        5     2024    168.3    450.4   1061.5   428.00      0.0    166.8      1.5      0.0      0.0     93.7       46    230.7    232.2       98     0.000     0.000     0.000     0.000      107        0        0        0       18        6        1    19.090       93     40.2    7.682   -9.900     2.37    0.000    0.000       11        9     2024  Maize_short_Cahul_22May_Optimum_85_MPI.PRM
  Tot(45)       22        5     2025    358.3    470.4   1141.7   431.00      0.0    269.7     88.6      0.0      0.0     83.0       34    233.7    234.0      100     0.000     0.000     0.000     0.000      107        0        0        0       15        9        0    19.650       92     40.3    7.916   -9.900     2.50    0.000    0.000       11        9     2025  Maize_short_Cahul_22May_Optimum_85_MPI.PRM
  Tot(46)       22        5     2026    189.7    518.7   1335.0   435.00      0.0    182.8      6.9      0.0      0.0     94.1       36    262.3    261.4       99     0.000     0.000     0.000     0.000      107        0        0        0        6       10        1    20.864       90     40.1    8.363   -9.900     2.35    0.000    0.000       11        9     2026  Maize_short_Cahul_22May_Optimum_85_MPI.PRM
  Tot(47)       22        5     2027    230.0    457.2   1157.4   438.00      0.0    223.8      6.2      1.3      0.0    105.5       48    234.9    234.5      100     0.000     0.000     0.000     0.000      107        0        0        0       11        2        0    20.887       96     40.0    8.356   -9.900     2.45    0.000    0.000       11        9     2027  Maize_short_Cahul_22May_Optimum_85_MPI.PRM
  Tot(48)       22        5     2028    146.9    480.2   1157.0   442.00      0.0    144.9      2.0      4.3      0.0    122.2       59    218.1    218.5       83     0.000     0.000     0.000     0.000      107        0        0        0       12       10       13    16.052       69     39.9    6.402   -9.900     1.88    0.000    0.000       11        9     2028  Maize_short_Cahul_22May_Optimum_85_MPI.PRM
  Tot(49)       22        5     2029    255.6    427.8   1175.8   445.00      0.0    228.5     27.1     29.8      0.0    108.9       60    246.6    246.3      100     0.000     0.000     0.000     0.000      107        0        0        0       12        1        0    22.405       97     40.0    8.964   -9.900     2.52    0.000    0.000       11        9     2029  Maize_short_Cahul_22May_Optimum_85_MPI.PRM
  Tot(50)       22        5     2030    131.7    504.6   1103.1   449.00      0.0    130.5      1.2      1.1      0.0    108.7       47    227.3    228.1       91     0.000     0.000     0.000     0.000      107        0        0        0       17       13        7    17.337       82     40.4    7.013   -9.900     2.09    0.000    0.000       11        9     2030  Maize_short_Cahul_22May_Optimum_85_MPI.PRM
  Tot(51)       22        5     2031    316.5    440.0   1077.8   452.00      0.0    256.5     60.0     26.0      0.0    119.9       72    247.5    247.6      100     0.000     0.000     0.000     0.000      107        0        0        0       21        1        0    20.115       97     40.1    8.059   -9.900     2.19    0.000    0.000       11        9     2031  Maize_short_Cahul_22May_Optimum_85_MPI.PRM
  Tot(52)       22        5     2032    153.5    547.6   1302.2   456.00      0.0    145.4      8.1     11.8      0.0    124.0       44    211.9    212.0       81     0.000     0.000     0.000     0.000      107        0        0        0        8       24       15    13.999       58     40.2    5.622   -9.900     1.67    0.000    0.000       11        9     2032  Maize_short_Cahul_22May_Optimum_85_MPI.PRM
  Tot(53)       22        5     2033    288.2    486.3   1142.0   460.00      0.0    265.0     23.2     35.3      0.0    111.9       54    267.8    266.4      100     0.000     0.000     0.000     0.000      107        0        0        0       12        5        0    20.919       96     40.2    8.404   -9.900     2.21    0.000    0.000       11        9     2033  Maize_short_Cahul_22May_Optimum_85_MPI.PRM
  Tot(54)       22        5     2034    178.4    538.5   1370.4   464.00      0.0    171.0      7.4      0.0      0.0    106.9       44    278.7    279.4       92     0.000     0.000     0.000     0.000      107        0        0        0        4       13        7    19.995       84     40.4    8.082   -9.900     2.10    0.000    0.000       11        9     2034  Maize_short_Cahul_22May_Optimum_85_MPI.PRM
  Tot(55)       22        5     2035    111.2    516.6   1191.1   468.00      0.0    110.8      0.4      0.2      0.0    129.4       48    191.4    192.4       80     0.000     0.000     0.000     0.000      102        0        0        0       11       22       18    13.330       58     39.0    5.204   -9.900     1.64    0.000    0.000       11        9     2035  Maize_short_Cahul_22May_Optimum_85_MPI.PRM
  Tot(56)       22        5     2036     59.5    645.5   1407.5   472.00      0.0     59.5      0.0      0.0      0.0     93.8       22    171.0    171.0       78     0.000     0.000     0.000     0.000       94        0        0        0        5       32       18     9.623       40     31.1    2.997   -9.900     1.14    0.000    0.000       11        9     2036  Maize_short_Cahul_22May_Optimum_85_MPI.PRM
  Tot(57)       22        5     2037    184.2    464.7   1193.6   476.00      0.0    169.3     14.9     25.9      0.0    126.4       71    234.2    233.7       85     0.000     0.000     0.000     0.000      107        0        0        0       11        5       12    18.712       80     39.9    7.470   -9.900     2.07    0.000    0.000       11        9     2037  Maize_short_Cahul_22May_Optimum_85_MPI.PRM
  Tot(58)       22        5     2038    206.5    543.9   1223.0   481.00      0.0    193.9     12.6      0.6      0.0    117.5       44    245.1    245.1       90     0.000     0.000     0.000     0.000      107        0        0        0       15       24        6    17.065       77     40.6    6.923   -9.900     1.91    0.000    0.000       11        9     2038  Maize_short_Cahul_22May_Optimum_85_MPI.PRM
  Tot(59)       22        5     2039    234.6    461.7   1247.4   485.00      0.0    227.0      7.6      0.0      0.0    116.4       59    261.6    259.8      100     0.000     0.000     0.000     0.000      107        0        0        0        8        2        0    22.430       96     40.0    8.972   -9.900     2.37    0.000    0.000       11        9     2039  Maize_short_Cahul_22May_Optimum_85_MPI.PRM
  Tot(60)       22        5     2040    226.3    438.7   1139.4   489.00      0.0    195.9     30.4     45.8      0.0    108.9       68    246.5    246.8       92     0.000     0.000     0.000     0.000      107        0        0        0       16        7        7    20.376       88     40.2    8.195   -9.900     2.31    0.000    0.000       11        9     2040  Maize_short_Cahul_22May_Optimum_85_MPI.PRM
  Tot(61)       22        5     2041    240.6    508.1   1186.9   494.00      0.0    219.6     21.0      0.0      0.0     95.3       42    276.8    277.5      100     0.000     0.000     0.000     0.000      107        0        0        0       12        9        0    21.383       93     40.3    8.621   -9.900     2.32    0.000    0.000       11        9     2041  Maize_short_Cahul_22May_Optimum_85_MPI.PRM
  Tot(62)       22        5     2042    202.4    488.8   1218.3   499.00      0.0    187.3     15.1      0.0      0.0     85.7       37    260.2    259.7      100     0.000     0.000     0.000     0.000      107        0        0        0        9        6        0    22.226       94     40.1    8.908   -9.900     2.57    0.000    0.000       11        9     2042  Maize_short_Cahul_22May_Optimum_85_MPI.PRM
  Tot(63)       22        5     2043    176.0    486.3   1311.1   504.00      0.0    171.8      4.2      3.4      0.0    113.9       60    270.0    271.2       90     0.000     0.000     0.000     0.000      107        0        0        0        7        5        8    21.037       86     40.1    8.430   -9.900     2.20    0.000    0.000       11        9     2043  Maize_short_Cahul_22May_Optimum_85_MPI.PRM
  Tot(64)       22        5     2044    122.4    555.2   1317.3   508.00      0.0    120.5      1.9      0.0      0.0     85.5       32    251.9    251.9       86     0.000     0.000     0.000     0.000      107        0        0        0        6       19       11    18.096       75     40.6    7.338   -9.900     2.17    0.000    0.000       11        9     2044  Maize_short_Cahul_22May_Optimum_85_MPI.PRM
  Tot(65)       22        5     2045    118.8    547.7   1365.0   513.00      0.0    118.6      0.2      0.0      0.0    108.9       37    220.7    221.1       84     0.000     0.000     0.000     0.000      107        0        0        0        4       25       12    16.560       67     40.6    6.717   -9.900     2.04    0.000    0.000       11        9     2045  Maize_short_Cahul_22May_Optimum_85_MPI.PRM
  Tot(66)       22        5     2046    211.4    458.6   1275.7   519.00      0.0    204.9      6.5     14.0      0.0    111.6       62    272.2    271.8       98     0.000     0.000     0.000     0.000      107        0        0        0        7        3        2    22.848       94     40.1    9.165   -9.900     2.39    0.000    0.000       11        9     2046  Maize_short_Cahul_22May_Optimum_85_MPI.PRM
  Tot(67)       22        5     2047    272.8    458.8   1213.9   524.00      0.0    253.6     19.2      3.2      0.0    133.5       61    233.5    232.0      100     0.000     0.000     0.000     0.000      107        0        0        0       10        8        0    21.155       94     40.2    8.499   -9.900     2.32    0.000    0.000       11        9     2047  Maize_short_Cahul_22May_Optimum_85_MPI.PRM
  Tot(68)       22        5     2048    100.2    569.1   1378.3   529.00      0.0     99.7      0.5      0.0      0.0    106.7       38    210.3    212.4       76     0.000     0.000     0.000     0.000      107        0        0        0        7       27       21    13.837       55     40.1    5.552   -9.900     1.75    0.000    0.000       11        9     2048  Maize_short_Cahul_22May_Optimum_85_MPI.PRM
  Tot(69)       22        5     2049    181.4    505.1   1264.8   535.00      0.0    177.1      4.3      0.0      0.0     97.6       50    287.0    285.9       94     0.000     0.000     0.000     0.000      107        0        0        0       10        4        5    21.376       90     40.0    8.549   -9.900     2.22    0.000    0.000       11        9     2049  Maize_short_Cahul_22May_Optimum_85_MPI.PRM
  Tot(70)       22        5     2050    159.6    518.6   1330.2   541.00      0.0    159.0      0.6      0.0      0.0     89.6       38    261.2    261.9       91     0.000     0.000     0.000     0.000      107        0        0        0        7        7        7    20.747       86     40.1    8.315   -9.900     2.37    0.000    0.000       11        9     2050  Maize_short_Cahul_22May_Optimum_85_MPI.PRM
  Tot(71)       22        5     2051    293.0    485.2   1229.2   546.00      0.0    276.8     16.2     25.2      0.0    129.2       62    274.1    274.3       99     0.000     0.000     0.000     0.000      107        0        0        0        9        5        1    22.944       96     40.3    9.250   -9.900     2.29    0.000    0.000       11        9     2051  Maize_short_Cahul_22May_Optimum_85_MPI.PRM
  Tot(72)       22        5     2052     92.8    540.7   1315.1   552.00      0.0     92.8      0.0      0.0      0.0     86.4       35    216.7    216.1       77     0.000     0.000     0.000     0.000      107        0        0        0        9       19       15    15.696       65     40.1    6.292   -9.900     2.08    0.000    0.000       11        9     2052  Maize_short_Cahul_22May_Optimum_85_MPI.PRM
  Tot(73)       22        5     2053    170.1    560.5   1353.1   558.00      0.0    169.7      0.4      0.7      0.0    121.3       48    254.3    254.2       86     0.000     0.000     0.000     0.000      107        0        0        0        9       12       12    17.864       76     40.1    7.155   -9.900     1.90    0.000    0.000       11        9     2053  Maize_short_Cahul_22May_Optimum_85_MPI.PRM
  Tot(74)       22        5     2054     95.9    552.4   1365.5   564.00      0.0     92.9      3.0     12.5      0.0     98.0       34    199.3    200.5       80     0.000     0.000     0.000     0.000      101        0        0        0        3       20       18    13.879       57     38.0    5.270   -9.900     1.78    0.000    0.000       11        9     2054  Maize_short_Cahul_22May_Optimum_85_MPI.PRM
  Tot(75)       22        5     2055    143.4    523.4   1281.9   571.00      0.0    138.0      5.4      1.3      0.0    110.0       48    245.9    245.4       86     0.000     0.000     0.000     0.000      107        0        0        0        9       18       12    18.381       77     40.5    7.436   -9.900     2.09    0.000    0.000       11        9     2055  Maize_short_Cahul_22May_Optimum_85_MPI.PRM
  Tot(76)       22        5     2056    142.9    540.8   1308.1   577.00      0.0    136.6      6.3      0.0      0.0     82.8       32    261.9    261.4       94     0.000     0.000     0.000     0.000      107        0        0        0        6        9        6    20.284       85     40.0    8.118   -9.900     2.36    0.000    0.000       11        9     2056  Maize_short_Cahul_22May_Optimum_85_MPI.PRM
  Tot(77)       22        5     2057    124.9    569.0   1306.6   583.00      0.0    124.1      0.8      0.0      0.0    116.9       45    225.7    226.1       77     0.000     0.000     0.000     0.000      107        0        0        0        9       22       18    15.428       65     40.2    6.202   -9.900     1.81    0.000    0.000       11        9     2057  Maize_short_Cahul_22May_Optimum_85_MPI.PRM
  Tot(78)       22        5     2058    276.6    447.9   1182.4   590.00      0.0    249.0     27.6     15.4      0.0    104.2       58    257.7    256.8      100     0.000     0.000     0.000     0.000      107        0        0        0       13        5        0    22.287       96     40.3    8.975   -9.900     2.48    0.000    0.000       11        9     2058  Maize_short_Cahul_22May_Optimum_85_MPI.PRM
  Tot(79)       22        5     2059    151.1    559.5   1397.1   597.00      0.0    141.6      9.5     16.7      0.0    122.2       50    217.3    218.5       76     0.000     0.000     0.000     0.000      107        0        0        0        6       15       20    14.645       59     39.8    5.830   -9.900     1.72    0.000    0.000       11        9     2059  Maize_short_Cahul_22May_Optimum_85_MPI.PRM
  Tot(80)       22        5     2060    117.7    565.5   1317.6   604.00      0.0    111.3      6.4      0.0      0.0     70.5       26    253.7    253.0       89     0.000     0.000     0.000     0.000      107        0        0        0        7       18        9    18.680       78     40.6    7.592   -9.900     2.34    0.000    0.000       11        9     2060  Maize_short_Cahul_22May_Optimum_85_MPI.PRM
  Tot(81)       22        5     2061    180.0    493.6   1190.8   611.00      0.0    173.7      6.3      3.8      0.0    114.5       53    227.5    227.6       86     0.000     0.000     0.000     0.000      107        0        0        0       14       14       11    17.779       78     40.4    7.181   -9.900     2.10    0.000    0.000       11        9     2061  Maize_short_Cahul_22May_Optimum_85_MPI.PRM
  Tot(82)       22        5     2062    163.0    500.0   1340.8   618.00      0.0    159.1      3.9      7.7      0.0    107.4       52    252.4    252.4       89     0.000     0.000     0.000     0.000      107        0        0        0        4        6        8    20.532       83     40.1    8.238   -9.900     2.29    0.000    0.000       11        9     2062  Maize_short_Cahul_22May_Optimum_85_MPI.PRM
  Tot(83)       22        5     2063    159.7    519.0   1359.2   625.00      0.0    157.7      2.0      0.9      0.0    102.4       42    247.1    246.9       93     0.000     0.000     0.000     0.000      107        0        0        0        5       11        5    20.492       86     40.4    8.278   -9.900     2.37    0.000    0.000       11        9     2063  Maize_short_Cahul_22May_Optimum_85_MPI.PRM
  Tot(84)       22        5     2064    201.9    533.8   1411.4   632.00      0.0    191.2     10.7     12.1      0.0    130.5       59    267.5    267.8       88     0.000     0.000     0.000     0.000      107        0        0        0        4       15       11    19.778       79     40.3    7.971   -9.900     2.00    0.000    0.000       11        9     2064  Maize_short_Cahul_22May_Optimum_85_MPI.PRM
  Tot(85)       22        5     2065    161.8    534.9   1313.6   639.00      0.0    155.7      6.1      0.0      0.0     91.9       39    267.7    268.0       93     0.000     0.000     0.000     0.000      107        0        0        0        7        6        6    20.536       87     40.1    8.238   -9.900     2.29    0.000    0.000       11        9     2065  Maize_short_Cahul_22May_Optimum_85_MPI.PRM
  Tot(86)       22        5     2066    155.6    632.5   1480.7   647.00      0.0    144.7     10.9      0.0      0.0     94.2       26    202.9    202.4       79     0.000     0.000     0.000     0.000      107        0        0        0        4       28       12    13.421       55     40.4    5.421   -9.900     1.82    0.000    0.000       11        9     2066  Maize_short_Cahul_22May_Optimum_85_MPI.PRM
  Tot(87)       22        5     2067    223.0    511.4   1302.8   654.00      0.0    208.6     14.4      0.0      0.0     84.2       34    260.1    258.5      100     0.000     0.000     0.000     0.000      107        0        0        0        8        8        0    21.967       93     40.3    8.845   -9.900     2.57    0.000    0.000       11        9     2067  Maize_short_Cahul_22May_Optimum_85_MPI.PRM
  Tot(88)       22        5     2068    119.1    517.9   1324.2   662.00      0.0    116.3      2.8      0.0      0.0    101.8       38    191.3    193.4       83     0.000     0.000     0.000     0.000      107        0        0        0       10       28       11    14.037       59     40.7    5.706   -9.900     1.95    0.000    0.000       11        9     2068  Maize_short_Cahul_22May_Optimum_85_MPI.PRM
  Tot(89)       22        5     2069    153.7    541.9   1400.8   669.00      0.0    147.6      6.1     15.6      0.0    102.8       41    245.1    244.7       88     0.000     0.000     0.000     0.000      107        0        0        0        4       19       11    18.541       76     40.5    7.512   -9.900     2.16    0.000    0.000       11        9     2069  Maize_short_Cahul_22May_Optimum_85_MPI.PRM
  Tot(90)       22        5     2070     28.7    614.8   1482.0   677.00      0.0     28.7      0.0      0.0      0.0     65.5       18    171.7    172.4       74     0.000     0.000     0.000     0.000       94        0        0        0        4       28       19    10.912       43     31.2    3.400   -9.900     1.44    0.000    0.000       11        9     2070  Maize_short_Cahul_22May_Optimum_85_MPI.PRM
  Tot(91)       22        5     2071     92.8    631.2   1546.3   685.00      0.0     92.3      0.5      0.0      0.0    118.6       33    190.4    190.4       79     0.000     0.000     0.000     0.000      100        0        0        0        2       27       18    13.000       52     37.0    4.809   -9.900     1.56    0.000    0.000       11        9     2071  Maize_short_Cahul_22May_Optimum_85_MPI.PRM
  Tot(92)       22        5     2072     90.9    654.0   1531.2   693.00      0.0     90.8      0.1      0.0      0.0    104.4       25    169.4    169.4       77     0.000     0.000     0.000     0.000       94        0        0        0        1       31       18    10.030       40     31.2    3.126   -9.900     1.24    0.000    0.000       11        9     2072  Maize_short_Cahul_22May_Optimum_85_MPI.PRM
  Tot(93)       22        5     2073    173.3    441.3   1224.5   701.00      0.0    168.8      4.5      8.6      0.0    107.9       60    240.2    238.4       97     0.000     0.000     0.000     0.000      107        0        0        0       10        5        2    22.306       93     40.0    8.931   -9.900     2.57    0.000    0.000       11        9     2073  Maize_short_Cahul_22May_Optimum_85_MPI.PRM
  Tot(94)       22        5     2074    156.8    518.6   1367.6   709.00      0.0    150.8      6.0      0.0      0.0     83.0       34    261.3    261.6       98     0.000     0.000     0.000     0.000      107        0        0        0        4        6        2    22.237       91     40.1    8.923   -9.900     2.59    0.000    0.000       11        9     2074  Maize_short_Cahul_22May_Optimum_85_MPI.PRM
  Tot(95)       22        5     2075    212.2    525.4   1446.5   717.00      0.0    196.3     15.9     35.9      0.0    139.6       61    232.9    233.6       84     0.000     0.000     0.000     0.000      107        0        0        0        2        9       13    17.991       72     39.9    7.174   -9.900     1.93    0.000    0.000       11        9     2075  Maize_short_Cahul_22May_Optimum_85_MPI.PRM
  Tot(96)       22        5     2076    147.7    592.5   1514.0   725.00      0.0    133.5     14.2      0.0      0.0     81.7       25    250.8    250.4       93     0.000     0.000     0.000     0.000      107        0        0        0        3       26        5    18.003       74     40.5    7.296   -9.900     2.19    0.000    0.000       11        9     2076  Maize_short_Cahul_22May_Optimum_85_MPI.PRM
  Tot(97)       22        5     2077    244.9    526.0   1480.4   733.00      0.0    229.6     15.3     21.4      0.0    131.9       59    239.8    240.3       85     0.000     0.000     0.000     0.000      107        0        0        0        3        9       11    18.505       75     39.8    7.362   -9.900     1.98    0.000    0.000       11        9     2077  Maize_short_Cahul_22May_Optimum_85_MPI.PRM
  Tot(98)       22        5     2078    202.7    544.9   1463.1   742.00      0.0    190.9     11.8     11.9      0.0    111.8       47    272.8    273.1       93     0.000     0.000     0.000     0.000      107        0        0        0        4        3        6    21.658       89     40.0    8.658   -9.900     2.25    0.000    0.000       11        9     2078  Maize_short_Cahul_22May_Optimum_85_MPI.PRM
  Tot(99)       22        5     2079    123.1    553.1   1358.5   750.00      0.0    119.4      3.7      0.0      0.0     82.0       33    254.3    254.3       87     0.000     0.000     0.000     0.000      107        0        0        0        4        6       10    19.794       81     39.8    7.872   -9.900     2.34    0.000    0.000       11        9     2079  Maize_short_Cahul_22May_Optimum_85_MPI.PRM
 Tot(100)       22        5     2080     70.5    605.4   1523.6   758.00      0.0     69.8      0.7      0.0      0.0     77.7       26    214.2    214.4       75     0.000     0.000     0.000     0.000      107        0        0        0        2       18       20    14.903       61     39.5    5.889   -9.900     2.02    0.000    0.000       11        9     2080  Maize_short_Cahul_22May_Optimum_85_MPI.PRM
 Tot(101)       22        5     2081    157.5    510.3   1395.7   767.00      0.0    153.5      4.0      1.1      0.0    111.6       54    250.7    249.7       89     0.000     0.000     0.000     0.000      107        0        0        0        6        8        8    20.197       84     40.4    8.158   -9.900     2.25    0.000    0.000       11        9     2081  Maize_short_Cahul_22May_Optimum_85_MPI.PRM
 Tot(102)       22        5     2082     74.9    643.8   1577.1   775.00      0.0     74.5      0.4      0.0      0.0     89.3       25    201.7    203.0       79     0.000     0.000     0.000     0.000      101        0        0        0        1       20       19    13.305       54     37.7    5.011   -9.900     1.73    0.000    0.000       11        9     2082  Maize_short_Cahul_22May_Optimum_85_MPI.PRM
 Tot(103)       22        5     2083    165.2    543.5   1483.1   784.00      0.0    153.6     11.6     29.3      0.0    101.9       44    228.5    228.0       83     0.000     0.000     0.000     0.000      107        0        0        0        3       10       13    16.894       69     40.0    6.753   -9.900     2.04    0.000    0.000       11        9     2083  Maize_short_Cahul_22May_Optimum_85_MPI.PRM
 Tot(104)       22        5     2084    132.4    512.3   1441.2   792.00      0.0    128.3      4.1      0.3      0.0    109.8       47    229.9    230.1       88     0.000     0.000     0.000     0.000      107        0        0        0        4        7       10    19.384       80     40.0    7.748   -9.900     2.28    0.000    0.000       11        9     2084  Maize_short_Cahul_22May_Optimum_85_MPI.PRM
 Tot(105)       22        5     2085     71.1    592.4   1467.5   801.00      0.0     70.3      0.8      0.0      0.0     88.5       30    192.9    193.2       77     0.000     0.000     0.000     0.000      100        0        0        0        4       18       19    13.139       54     36.9    4.842   -9.900     1.74    0.000    0.000       11        9     2085  Maize_short_Cahul_22May_Optimum_85_MPI.PRM
 Tot(106)       22        5     2086     70.7    681.5   1611.7   810.00      0.0     70.1      0.6      0.0      0.0    100.2       23    175.5    175.5       79     0.000     0.000     0.000     0.000       95        0        0        0        1       33       18    10.275       42     32.1    3.303   -9.900     1.22    0.000    0.000       11        9     2086  Maize_short_Cahul_22May_Optimum_85_MPI.PRM
 Tot(107)       22        5     2087    132.0    512.5   1417.7   818.00      0.0    128.0      4.0      0.6      0.0     94.4       40    234.0    232.9       91     0.000     0.000     0.000     0.000      107        0        0        0        5       23        7    19.083       80     40.8    7.793   -9.900     2.37    0.000    0.000       11        9     2087  Maize_short_Cahul_22May_Optimum_85_MPI.PRM
 Tot(108)       22        5     2088    177.8    533.1   1462.4   827.00      0.0    166.4     11.4     19.9      0.0    120.0       48    237.0    237.0       90     0.000     0.000     0.000     0.000      107        0        0        0        2        9        8    19.973       83     40.3    8.042   -9.900     2.25    0.000    0.000       11        9     2088  Maize_short_Cahul_22May_Optimum_85_MPI.PRM
 Tot(109)       22        5     2089    179.6    510.4   1376.1   836.00      0.0    149.3     30.3     42.5      0.0    107.4       50    216.1    217.2       84     0.000     0.000     0.000     0.000      107        0        0        0        5       10       16    16.600       70     40.0    6.637   -9.900     2.05    0.000    0.000       11        9     2089  Maize_short_Cahul_22May_Optimum_85_MPI.PRM
 Tot(110)       22        5     2090     30.1    648.0   1551.4   845.00      0.0     30.1      0.0      0.0      0.0     66.2       16    164.6    164.7       80     0.000     0.000     0.000     0.000       96        0        0        0        5       33       17    10.144       41     33.3    3.380   -9.900     1.49    0.000    0.000       11        9     2090  Maize_short_Cahul_22May_Optimum_85_MPI.PRM
 Tot(111)       22        5     2091     94.7    611.1   1560.4   854.00      0.0     94.6      0.1      0.0      0.0    102.4       32    188.9    188.3       76     0.000     0.000     0.000     0.000      107        0        0        0        2       26       17    12.648       52     40.4    5.106   -9.900     1.75    0.000    0.000       11        9     2091  Maize_short_Cahul_22May_Optimum_85_MPI.PRM
 Tot(112)       22        5     2092     69.2    713.3   1632.6   863.00      0.0     69.1      0.1      0.0      0.0     91.6       23    185.4    186.0       74     0.000     0.000     0.000     0.000       91        0        0        0        1       26       20    10.328       43     28.1    2.906   -9.900     1.06    0.000    0.000       11        9     2092  Maize_short_Cahul_22May_Optimum_85_MPI.PRM
 Tot(113)       22        5     2093    192.0    561.9   1498.7   872.00      0.0    165.2     26.8     26.3      0.0    107.6       46    246.7    245.7       84     0.000     0.000     0.000     0.000      107        0        0        0        3        6       12    18.452       77     39.8    7.340   -9.900     2.07    0.000    0.000       11        9     2093  Maize_short_Cahul_22May_Optimum_85_MPI.PRM
 Tot(114)       22        5     2094    171.0    564.9   1485.0   881.00      0.0    142.7     28.3     21.6      0.0     91.4       33    209.4    209.1       83     0.000     0.000     0.000     0.000      107        0        0        0        3       24       11    15.117       63     40.6    6.142   -9.900     2.04    0.000    0.000       11        9     2094  Maize_short_Cahul_22May_Optimum_85_MPI.PRM
 Tot(115)       22        5     2095    122.0    691.1   1685.9   890.00      0.0    104.2     17.8      0.0      0.0     94.3       20    185.4    186.4       85     0.000     0.000     0.000     0.000      107        0        0        0        1       32       11    11.939       50     40.5    4.835   -9.900     1.73    0.000    0.000       11        9     2095  Maize_short_Cahul_22May_Optimum_85_MPI.PRM
 Tot(116)       22        5     2096     69.9    744.9   1771.3   899.00      0.0     69.9      0.0      0.0      0.0     90.7       21    193.0    193.3       73     0.000     0.000     0.000     0.000       96        0        0        0        0       25       21    10.794       45     32.5    3.508   -9.900     1.26    0.000    0.000       11        9     2096  Maize_short_Cahul_22May_Optimum_85_MPI.PRM
 Tot(117)       22        5     2097    248.7    507.0   1479.0   908.00      0.0    215.1     33.6      0.0      0.0     84.2       34    242.3    240.2      100     0.000     0.000     0.000     0.000      107        0        0        0        3        9        0    21.681       92     40.3    8.728   -9.900     2.67    0.000    0.000       11        9     2097  Maize_short_Cahul_22May_Optimum_85_MPI.PRM
 Tot(118)       22        5     2098    190.2    514.1   1406.3   917.00      0.0    161.9     28.3      6.8      0.0    101.2       43    249.8    250.3       98     0.000     0.000     0.000     0.000      107        0        0        0        4        6        2    21.880       92     40.2    8.797   -9.900     2.51    0.000    0.000       11        9     2098  Maize_short_Cahul_22May_Optimum_85_MPI.PRM
 Tot(119)       22        5     2099    122.9    624.0   1558.8   927.00      0.0    115.7      7.2      0.0      0.0     92.0       25    172.2    173.8       78     0.000     0.000     0.000     0.000       99        0        0        0        2       30       17    10.597       45     36.4    3.855   -9.900     1.54    0.000    0.000       11        9     2099  Maize_short_Cahul_22May_Optimum_85_MPI.PRM
