AquaCrop 7.0 (August 2022) - Output created on (date) : 23-11-2022   at (time) : 13:07:31

    RunNr     Day1   Month1    Year1     Rain      ETo       GD     CO2      Irri   Infilt   Runoff    Drain   Upflow        E     E/Ex       Tr      TrW   Tr/Trx    SaltIn   SaltOut    SaltUp  SaltProf     Cycle   SaltStr  FertStr  WeedStr  TempStr   ExpStr   StoStr  BioMass  Brelative   HI    Y(dry)  Y(fresh)    WPet      Bin     Bout     DayN   MonthN    YearN
                                           mm       mm  degC.day    ppm        mm       mm       mm       mm       mm       mm        %       mm       mm        %    ton/ha    ton/ha    ton/ha    ton/ha      days       %        %        %        %        %        %    ton/ha        %       %    ton/ha   ton/ha    kg/m3   ton/ha   ton/ha
   Tot(1)        6        6     1981    179.0    479.2   1259.0   340.11      0.0    174.7      4.3      0.0      0.0    132.9       57    220.5    220.8       90     0.000     0.000     0.000     0.000      107        0        0        0       13       17        7    16.102       81     40.7    6.560   -9.900     1.86    0.000    0.000       26        9     1981  Maize_short_Cahul_6June_Optimum_26_NCC.PRM
   Tot(2)        6        6     1982    226.5    453.3   1300.2   341.22      0.0    224.6      1.9      0.0      0.0    156.5       76    260.5    260.9       99     0.000     0.000     0.000     0.000      107        0        0        0        6        2        1    21.545       96     40.1    8.646   -9.900     2.07    0.000    0.000       26        9     1982  Maize_short_Cahul_6June_Optimum_26_NCC.PRM
   Tot(3)        6        6     1983    282.8    466.4   1248.7   342.84      0.0    248.9     33.9     46.7      0.0    132.2       64    257.0    257.3       99     0.000     0.000     0.000     0.000      107        0        0        0        9        4        1    20.228       95     40.0    8.092   -9.900     2.08    0.000    0.000       26        9     1983  Maize_short_Cahul_6June_Optimum_26_NCC.PRM
   Tot(4)        6        6     1984    143.5    453.8   1166.3   344.40      0.0    140.3      3.2      4.9      0.0    123.3       58    220.8    220.0       91     0.000     0.000     0.000     0.000      107        0        0        0       11        9        9    17.880       83     40.2    7.193   -9.900     2.09    0.000    0.000       26        9     1984  Maize_short_Cahul_6June_Optimum_26_NCC.PRM
   Tot(5)        6        6     1985    324.4    461.9   1179.1   345.87      0.0    287.6     36.8     49.1      0.0    135.8       70    258.6    259.2       99     0.000     0.000     0.000     0.000      107        0        0        0       16        4        0    19.185       96     40.2    7.717   -9.900     1.96    0.000    0.000       26        9     1985  Maize_short_Cahul_6June_Optimum_26_NCC.PRM
   Tot(6)        6        6     1986    149.3    523.6   1330.5   347.19      0.0    143.2      6.1      7.2      0.0    118.6       48    231.7    232.3       83     0.000     0.000     0.000     0.000      107        0        0        0        8       15       14    15.738       73     40.4    6.352   -9.900     1.81    0.000    0.000       26        9     1986  Maize_short_Cahul_6June_Optimum_26_NCC.PRM
   Tot(7)        6        6     1987    210.0    499.3   1282.2   348.98      0.0    199.7     10.3      5.6      0.0    126.8       54    262.1    260.7       98     0.000     0.000     0.000     0.000      107        0        0        0        9        6        2    19.599       94     40.3    7.891   -9.900     2.03    0.000    0.000       26        9     1987  Maize_short_Cahul_6June_Optimum_26_NCC.PRM
   Tot(8)        6        6     1988    164.3    492.5   1317.1   351.45      0.0    154.4      9.9      0.0      0.0    107.7       41    206.4    207.0       87     0.000     0.000     0.000     0.000      107        0        0        0        9       24        8    14.613       69     40.7    5.955   -9.900     1.90    0.000    0.000       26        9     1988  Maize_short_Cahul_6June_Optimum_26_NCC.PRM
   Tot(9)        6        6     1989    263.2    446.7   1239.6   352.89      0.0    252.6     10.6      6.9      0.0    133.6       65    242.4    241.5      100     0.000     0.000     0.000     0.000      107        0        0        0       11        3        0    19.953       97     40.1    8.005   -9.900     2.13    0.000    0.000       26        9     1989  Maize_short_Cahul_6June_Optimum_26_NCC.PRM
  Tot(10)        6        6     1990    126.8    508.1   1226.1   354.16      0.0    126.2      0.6      0.0      0.0    119.2       45    208.6    210.1       87     0.000     0.000     0.000     0.000      107        0        0        0       13       18       13    14.494       73     40.4    5.863   -9.900     1.79    0.000    0.000       26        9     1990  Maize_short_Cahul_6June_Optimum_26_NCC.PRM
  Tot(11)        6        6     1991    222.0    443.1   1313.0   355.48      0.0    209.4     12.6     21.9      0.0    124.4       61    240.4    239.0      100     0.000     0.000     0.000     0.000      107        0        0        0        8        3        0    20.349       97     40.2    8.172   -9.900     2.24    0.000    0.000       26        9     1991  Maize_short_Cahul_6June_Optimum_26_NCC.PRM
  Tot(12)        6        6     1992    139.3    517.8   1313.1   356.27      0.0    135.9      3.4      6.6      0.0    123.4       48    211.3    213.1       82     0.000     0.000     0.000     0.000      107        0        0        0       10       22       15    13.783       66     40.5    5.588   -9.900     1.67    0.000    0.000       26        9     1992  Maize_short_Cahul_6June_Optimum_26_NCC.PRM
  Tot(13)        6        6     1993    141.0    501.0   1168.2   356.95      0.0    140.8      0.2      0.0      0.0    104.1       42    227.4    226.3       93     0.000     0.000     0.000     0.000      107        0        0        0       16       16        5    16.569       84     40.7    6.735   -9.900     2.03    0.000    0.000       26        9     1993  Maize_short_Cahul_6June_Optimum_26_NCC.PRM
  Tot(14)        6        6     1994    201.5    505.3   1432.3   358.63      0.0    160.3     41.2     32.0      0.0     90.1       36    252.3    252.7       90     0.000     0.000     0.000     0.000      107        0        0        0        3       18        8    18.486       80     40.7    7.518   -9.900     2.20    0.000    0.000       26        9     1994  Maize_short_Cahul_6June_Optimum_26_NCC.PRM
  Tot(15)        6        6     1995    191.4    495.2   1340.3   360.62      0.0    188.1      3.3      0.0      0.0    121.7       48    237.3    237.7       95     0.000     0.000     0.000     0.000      107        0        0        0        9       16        3    18.156       87     40.7    7.387   -9.900     2.06    0.000    0.000       26        9     1995  Maize_short_Cahul_6June_Optimum_26_NCC.PRM
  Tot(16)        6        6     1996    216.5    496.5   1218.6   362.37      0.0    188.4     28.1      0.0      0.0     84.8       28    192.8    192.6       97     0.000     0.000     0.000     0.000      107        0        0        0       17       27        1    14.902       79     40.9    6.096   -9.900     2.20    0.000    0.000       26        9     1996  Maize_short_Cahul_6June_Optimum_26_NCC.PRM
  Tot(17)        6        6     1997    374.7    437.8   1219.0   363.47      0.0    331.6     43.1     21.0      0.0    154.2       73    216.0    216.5      100     0.000     0.000     0.000     0.000      107        0        0        0       13        1        0    19.216       97     40.0    7.687   -9.900     2.08    0.000    0.000       26        9     1997  Maize_short_Cahul_6June_Optimum_26_NCC.PRM
  Tot(18)        6        6     1998    210.6    490.9   1290.8   366.50      0.0    202.8      7.8      2.7      0.0    137.5       57    216.7    215.7       88     0.000     0.000     0.000     0.000      107        0        0        0       11       22        7    15.320       74     40.7    6.242   -9.900     1.76    0.000    0.000       26        9     1998  Maize_short_Cahul_6June_Optimum_26_NCC.PRM
  Tot(19)        6        6     1999    276.9    515.7   1442.8   368.14      0.0    264.5     12.4     18.9      0.0    146.3       54    262.2    260.6      100     0.000     0.000     0.000     0.000      107        0        0        0        5       12        0    20.568       92     40.4    8.314   -9.900     2.04    0.000    0.000       26        9     1999  Maize_short_Cahul_6June_Optimum_26_NCC.PRM
  Tot(20)        6        6     2000    158.9    542.0   1294.7   369.41      0.0    148.1     10.8      0.0      0.0     98.1       31    203.4    206.0       85     0.000     0.000     0.000     0.000      107        0        0        0       12       25        8    13.776       66     40.7    5.610   -9.900     1.86    0.000    0.000       26        9     2000  Maize_short_Cahul_6June_Optimum_26_NCC.PRM
  Tot(21)        6        6     2001    221.7    527.9   1398.2   371.07      0.0    201.1     20.6      0.3      0.0    135.1       46    194.9    195.0       82     0.000     0.000     0.000     0.000      107        0        0        0        6       27       12    12.690       57     40.6    5.151   -9.900     1.56    0.000    0.000       26        9     2001  Maize_short_Cahul_6June_Optimum_26_NCC.PRM
  Tot(22)        6        6     2002    281.0    528.2   1422.2   373.16      0.0    245.2     35.8     12.8      0.0    108.3       38    260.4    259.6      100     0.000     0.000     0.000     0.000      107        0        0        0        6        5        0    20.424       92     40.0    8.170   -9.900     2.22    0.000    0.000       26        9     2002  Maize_short_Cahul_6June_Optimum_26_NCC.PRM
  Tot(23)        6        6     2003    140.3    548.0   1349.4   375.80      0.0    134.9      5.4      0.0      0.0    100.9       34    221.2    221.7       86     0.000     0.000     0.000     0.000      107        0        0        0        9       17       10    15.517       73     40.4    6.273   -9.900     1.95    0.000    0.000       26        9     2003  Maize_short_Cahul_6June_Optimum_26_NCC.PRM
  Tot(24)        6        6     2004    228.7    508.4   1288.8   377.49      0.0    221.5      7.2      3.7      0.0    113.5       45    258.8    258.0      100     0.000     0.000     0.000     0.000      107        0        0        0        9        6        0    20.096       94     40.2    8.071   -9.900     2.17    0.000    0.000       26        9     2004  Maize_short_Cahul_6June_Optimum_26_NCC.PRM
  Tot(25)        6        6     2005    352.7    506.6   1346.7   379.80      0.0    327.3     25.4     34.4      0.0    134.4       59    291.2    289.5      100     0.000     0.000     0.000     0.000      107        0        0        0        5        2        0    21.779       96     40.0    8.720   -9.900     2.05    0.000    0.000       26        9     2005  Maize_short_Cahul_6June_Optimum_26_NCC.PRM
  Tot(26)        6        6     2006    156.6    550.8   1344.7   381.90      0.0    154.3      2.3      0.0      0.0    113.1       36    238.3    239.7       93     0.000     0.000     0.000     0.000      107        0        0        0        6       24        5    16.857       75     40.6    6.849   -9.900     1.95    0.000    0.000       26        9     2006  Maize_short_Cahul_6June_Optimum_26_NCC.PRM
  Tot(27)        6        6     2007    159.1    626.4   1410.5   383.77      0.0    157.4      1.7      0.0      0.0    124.0       31    229.3    229.4       92     0.000     0.000     0.000     0.000      107        0        0        0        8       25        6    14.814       69     40.2    5.960   -9.900     1.69    0.000    0.000       26        9     2007  Maize_short_Cahul_6June_Optimum_26_NCC.PRM
  Tot(28)        6        6     2008    197.7    569.5   1367.7   385.59      0.0    188.2      9.5      0.0      0.0    129.2       43    217.9    218.9       80     0.000     0.000     0.000     0.000      107        0        0        0       12       19       12    13.692       67     40.3    5.520   -9.900     1.59    0.000    0.000       26        9     2008  Maize_short_Cahul_6June_Optimum_26_NCC.PRM
  Tot(29)        6        6     2009    176.3    588.9   1438.2   387.37      0.0    169.3      7.0      0.0      0.0    132.6       41    237.0    236.4       86     0.000     0.000     0.000     0.000      107        0        0        0        4       23       12    15.251       66     40.6    6.188   -9.900     1.67    0.000    0.000       26        9     2009  Maize_short_Cahul_6June_Optimum_26_NCC.PRM
  Tot(30)        6        6     2010    247.1    521.6   1434.9   389.85      0.0    228.6     18.5     34.5      0.0    144.4       58    242.2    241.9       87     0.000     0.000     0.000     0.000      107        0        0        0        7       15        9    17.023       76     40.6    6.909   -9.900     1.79    0.000    0.000       26        9     2010  Maize_short_Cahul_6June_Optimum_26_NCC.PRM
  Tot(31)        6        6     2011    144.1    558.1   1426.3   391.63      0.0    132.7     11.4     12.7      0.0    119.0       40    215.7    216.9       81     0.000     0.000     0.000     0.000      104        0        0        0        3       20       18    13.821       58     40.0    5.525   -9.900     1.65    0.000    0.000       26        9     2011  Maize_short_Cahul_6June_Optimum_26_NCC.PRM
  Tot(32)        6        6     2012    172.7    628.8   1504.7   393.82      0.0    166.6      6.1      6.3      0.0    136.7       36    225.7    224.3       82     0.000     0.000     0.000     0.000      107        0        0        0        3       30       14    13.332       57     40.3    5.372   -9.900     1.48    0.000    0.000       26        9     2012  Maize_short_Cahul_6June_Optimum_26_NCC.PRM
  Tot(33)        6        6     2013    278.4    535.9   1388.7   396.48      0.0    252.5     25.9     25.8      0.0    138.7       51    237.0    237.2       89     0.000     0.000     0.000     0.000      107        0        0        0        8       19        6    16.949       78     40.7    6.904   -9.900     1.84    0.000    0.000       26        9     2013  Maize_short_Cahul_6June_Optimum_26_NCC.PRM
  Tot(34)        6        6     2014    153.0    567.9   1422.4   398.55      0.0    152.8      0.2      0.0      0.0    140.1       49    227.5    228.7       79     0.000     0.000     0.000     0.000      107        0        0        0        6       23       20    14.324       63     39.8    5.704   -9.900     1.55    0.000    0.000       26        9     2014  Maize_short_Cahul_6June_Optimum_26_NCC.PRM
  Tot(35)        6        6     2015    140.8    604.0   1480.5   401.00      0.0    138.4      2.4      0.1      0.0    131.6       39    216.4    216.3       78     0.000     0.000     0.000     0.000      107        0        0        0        3       29       19    13.045       55     40.3    5.259   -9.900     1.51    0.000    0.000       26        9     2015  Maize_short_Cahul_6June_Optimum_26_NCC.PRM
  Tot(36)        6        6     2016    168.2    577.0   1458.2   403.00      0.0    155.6     12.6      0.1      0.0    129.7       38    195.0    195.2       81     0.000     0.000     0.000     0.000      107        0        0        0        7       28       16    11.995       54     40.3    4.834   -9.900     1.49    0.000    0.000       26        9     2016  Maize_short_Cahul_6June_Optimum_26_NCC.PRM
  Tot(37)        6        6     2017    233.5    561.6   1453.7   405.00      0.0    202.3     31.2      8.2      0.0    137.4       53    277.3    276.9       88     0.000     0.000     0.000     0.000      107        0        0        0        4        6       13    18.327       79     39.7    7.273   -9.900     1.75    0.000    0.000       26        9     2017  Maize_short_Cahul_6June_Optimum_26_NCC.PRM
  Tot(38)        6        6     2018    165.7    536.5   1498.9   408.00      0.0    161.3      4.4      0.0      0.0    114.1       46    258.3    258.7       87     0.000     0.000     0.000     0.000      107        0        0        0        4        5       13    17.983       77     39.8    7.154   -9.900     1.92    0.000    0.000       26        9     2018  Maize_short_Cahul_6June_Optimum_26_NCC.PRM
  Tot(39)        6        6     2019    147.0    605.5   1482.4   410.00      0.0    144.2      2.8      0.6      0.0    138.0       39    196.3    196.3       78     0.000     0.000     0.000     0.000       98        0        0        0        1       22       19    12.126       53     34.8    4.223   -9.900     1.28    0.000    0.000       26        9     2019  Maize_short_Cahul_6June_Optimum_26_NCC.PRM
  Tot(40)        6        6     2020     96.3    547.4   1340.7   412.00      0.0     96.3      0.0      0.0      0.0     96.7       31    200.9    200.9       82     0.000     0.000     0.000     0.000      107        0        0        0        6       29       15    13.572       59     40.5    5.492   -9.900     1.85    0.000    0.000       26        9     2020  Maize_short_Cahul_6June_Optimum_26_NCC.PRM
  Tot(41)        6        6     2021    103.8    541.8   1227.6   414.00      0.0    101.1      2.7      2.5      0.0    110.3       36    180.6    180.5       77     0.000     0.000     0.000     0.000      107        0        0        0       14       27       16    10.858       51     40.3    4.376   -9.900     1.50    0.000    0.000       26        9     2021  Maize_short_Cahul_6June_Optimum_26_NCC.PRM
  Tot(42)        6        6     2022     58.7    634.5   1479.4   417.00      0.0     58.7      0.0      0.0      0.0     96.8       22    164.1    164.1       79     0.000     0.000     0.000     0.000       95        0        0        0        2       34       17     9.135       40     32.3    2.948   -9.900     1.16    0.000    0.000       26        9     2022  Maize_short_Cahul_6June_Optimum_26_NCC.PRM
  Tot(43)        6        6     2023     49.1    596.5   1355.4   419.00      0.0     49.0      0.1      0.0      0.0     86.2       23    169.1    169.1       78     0.000     0.000     0.000     0.000       96        0        0        0        5       28       18    10.393       47     33.2    3.446   -9.900     1.36    0.000    0.000       26        9     2023  Maize_short_Cahul_6June_Optimum_26_NCC.PRM
  Tot(44)        6        6     2024     67.7    582.7   1260.2   421.00      0.0     62.8      4.9      6.3      0.0     90.2       25    165.5    165.5       77     0.000     0.000     0.000     0.000       91        0        0        0        9       31       18     9.399       42     28.1    2.645   -9.900     1.05    0.000    0.000       26        9     2024  Maize_short_Cahul_6June_Optimum_26_NCC.PRM
  Tot(45)        6        6     2025    152.9    536.0   1250.8   423.00      0.0    140.1     12.8     13.5      0.0    109.8       37    177.3    177.3       78     0.000     0.000     0.000     0.000       93        0        0        0        9       27       18    10.654       47     30.4    3.236   -9.900     1.15    0.000    0.000       26        9     2025  Maize_short_Cahul_6June_Optimum_26_NCC.PRM
  Tot(46)        6        6     2026    183.5    529.1   1183.5   424.00      0.0    174.0      9.5      3.0      0.0    131.7       50    214.7    214.5       85     0.000     0.000     0.000     0.000      107        0        0        0       18       17        9    14.219       73     40.6    5.772   -9.900     1.67    0.000    0.000       26        9     2026  Maize_short_Cahul_6June_Optimum_26_NCC.PRM
  Tot(47)        6        6     2027    114.3    600.0   1418.6   426.00      0.0    109.7      4.6      7.1      0.0    128.7       35    175.2    175.4       77     0.000     0.000     0.000     0.000       92        0        0        0        1       30       19     9.935       44     29.1    2.890   -9.900     0.98    0.000    0.000       26        9     2027  Maize_short_Cahul_6June_Optimum_26_NCC.PRM
  Tot(48)        6        6     2028    139.7    566.6   1408.9   428.00      0.0    128.1     11.6      0.0      0.0    100.9       30    180.2    180.2       79     0.000     0.000     0.000     0.000       95        0        0        0        2       29       19    10.655       45     32.1    3.422   -9.900     1.28    0.000    0.000       26        9     2028  Maize_short_Cahul_6June_Optimum_26_NCC.PRM
  Tot(49)        6        6     2029    131.9    443.1   1070.8   429.00      0.0    128.2      3.7      3.9      0.0     96.5       46    207.3    207.1       93     0.000     0.000     0.000     0.000      107        0        0        0       20       11        5    16.743       85     40.5    6.778   -9.900     2.23    0.000    0.000       26        9     2029  Maize_short_Cahul_6June_Optimum_26_NCC.PRM
  Tot(50)        6        6     2030     56.4    608.6   1345.4   431.00      0.0     56.4      0.0      0.0      0.0     89.0       22    163.7    163.9       77     0.000     0.000     0.000     0.000       91        0        0        0        6       33       18     8.903       42     28.1    2.504   -9.900     1.04    0.000    0.000       26        9     2030  Maize_short_Cahul_6June_Optimum_26_NCC.PRM
  Tot(51)        6        6     2031     59.8    602.4   1424.6   432.00      0.0     59.8      0.0      0.0      0.0     82.1       22    175.2    175.2       77     0.000     0.000     0.000     0.000       93        0        0        0        2       30       18    10.123       43     30.3    3.067   -9.900     1.22    0.000    0.000       26        9     2031  Maize_short_Cahul_6June_Optimum_26_NCC.PRM
  Tot(52)        6        6     2032     72.4    560.7   1352.9   433.00      0.0     72.4      0.0      0.0      0.0    105.7       32    173.7    173.7       77     0.000     0.000     0.000     0.000       95        0        0        0        4       28       19    10.914       47     32.1    3.504   -9.900     1.28    0.000    0.000       26        9     2032  Maize_short_Cahul_6June_Optimum_26_NCC.PRM
  Tot(53)        6        6     2033     79.3    560.7   1322.4   435.00      0.0     79.3      0.0      0.0      0.0    109.4       31    173.1    173.1       81     0.000     0.000     0.000     0.000      103        0        0        0        8       31       16    11.141       50     40.5    4.516   -9.900     1.61    0.000    0.000       26        9     2033  Maize_short_Cahul_6June_Optimum_26_NCC.PRM
  Tot(54)        6        6     2034     79.8    542.7   1159.0   436.00      0.0     73.7      6.1     15.1      0.0     87.1       29    176.0    176.0       78     0.000     0.000     0.000     0.000       94        0        0        0       12       27       18    10.641       50     31.2    3.315   -9.900     1.27    0.000    0.000       26        9     2034  Maize_short_Cahul_6June_Optimum_26_NCC.PRM
  Tot(55)        6        6     2035     82.2    567.1   1309.8   437.00      0.0     80.4      1.8      1.4      0.0     90.1       26    169.3    169.3       79     0.000     0.000     0.000     0.000       98        0        0        0        6       30       17    10.551       47     35.3    3.727   -9.900     1.46    0.000    0.000       26        9     2035  Maize_short_Cahul_6June_Optimum_26_NCC.PRM
  Tot(56)        6        6     2036     63.3    499.4   1181.5   438.00      0.0     62.7      0.6      0.1      0.0     86.0       33    189.2    189.2       82     0.000     0.000     0.000     0.000      102        0        0        0        9       19       18    13.380       61     39.2    5.242   -9.900     1.92    0.000    0.000       26        9     2036  Maize_short_Cahul_6June_Optimum_26_NCC.PRM
  Tot(57)        6        6     2037     97.2    559.9   1366.6   438.00      0.0     96.1      1.1      0.0      0.0    105.8       31    174.9    174.9       79     0.000     0.000     0.000     0.000      107        0        0        0       11       29       16    10.915       50     40.4    4.408   -9.900     1.57    0.000    0.000       26        9     2037  Maize_short_Cahul_6June_Optimum_26_NCC.PRM
  Tot(58)        6        6     2038    184.5    564.4   1351.2   439.00      0.0    163.6     20.9      0.0      0.0    122.7       34    174.5    174.5       81     0.000     0.000     0.000     0.000      107        0        0        0       13       30       14    10.783       52     40.5    4.370   -9.900     1.47    0.000    0.000       26        9     2038  Maize_short_Cahul_6June_Optimum_26_NCC.PRM
  Tot(59)        6        6     2039     50.4    552.6   1284.0   440.00      0.0     50.4      0.0      0.0      0.0     73.1       23    188.7    188.8       82     0.000     0.000     0.000     0.000      106        0        0        0        8       24       17    13.144       58     40.4    5.312   -9.900     2.04    0.000    0.000       26        9     2039  Maize_short_Cahul_6June_Optimum_26_NCC.PRM
  Tot(60)        6        6     2040     93.7    604.1   1428.1   440.00      0.0     92.5      1.2      0.0      0.0    118.2       33    174.4    174.4       75     0.000     0.000     0.000     0.000       92        0        0        0        4       29       19     9.813       41     29.1    2.851   -9.900     0.98    0.000    0.000       26        9     2040  Maize_short_Cahul_6June_Optimum_26_NCC.PRM
  Tot(61)        6        6     2041    243.6    476.4   1173.4   441.00      0.0    205.1     38.5      1.1      0.0    114.6       46    224.0    223.2      100     0.000     0.000     0.000     0.000      107        0        0        0       16       11        0    18.606       91     40.1    7.456   -9.900     2.20    0.000    0.000       26        9     2041  Maize_short_Cahul_6June_Optimum_26_NCC.PRM
  Tot(62)        6        6     2042     80.9    566.3   1315.4   441.00      0.0     77.7      3.2      3.4      0.0     95.3       29    184.3    185.2       80     0.000     0.000     0.000     0.000       95        0        0        0        5       27       18    11.057       50     32.4    3.587   -9.900     1.29    0.000    0.000       26        9     2042  Maize_short_Cahul_6June_Optimum_26_NCC.PRM
  Tot(63)        6        6     2043     45.8    553.7   1293.2   441.00      0.0     45.8      0.0      0.0      0.0     74.0       24    184.7    184.7       78     0.000     0.000     0.000     0.000       98        0        0        0        5       24       18    12.063       51     35.0    4.226   -9.900     1.64    0.000    0.000       26        9     2043  Maize_short_Cahul_6June_Optimum_26_NCC.PRM
  Tot(64)        6        6     2044     86.1    567.4   1272.7   442.00      0.0     85.5      0.6      0.0      0.0    107.3       33    183.4    183.4       78     0.000     0.000     0.000     0.000       96        0        0        0        6       28       18    10.845       51     33.2    3.599   -9.900     1.26    0.000    0.000       26        9     2044  Maize_short_Cahul_6June_Optimum_26_NCC.PRM
  Tot(65)        6        6     2045     57.3    595.7   1324.9   442.00      0.0     57.0      0.3      0.0      0.0     91.2       24    169.7    169.7       78     0.000     0.000     0.000     0.000       95        0        0        0        6       30       18    10.111       45     32.2    3.257   -9.900     1.25    0.000    0.000       26        9     2045  Maize_short_Cahul_6June_Optimum_26_NCC.PRM
  Tot(66)        6        6     2046     87.5    565.8   1400.8   442.00      0.0     85.5      2.0      3.8      0.0     97.8       29    175.7    175.7       77     0.000     0.000     0.000     0.000       94        0        0        0        4       27       19    10.734       47     31.1    3.340   -9.900     1.27    0.000    0.000       26        9     2046  Maize_short_Cahul_6June_Optimum_26_NCC.PRM
  Tot(67)        6        6     2047     81.5    526.3   1289.8   442.00      0.0     80.4      1.1      0.4      0.0    109.8       37    181.9    181.9       81     0.000     0.000     0.000     0.000      102        0        0        0        7       20       18    13.023       59     39.1    5.096   -9.900     1.77    0.000    0.000       26        9     2047  Maize_short_Cahul_6June_Optimum_26_NCC.PRM
  Tot(68)        6        6     2048     76.2    542.5   1329.8   442.00      0.0     75.8      0.4      0.0      0.0     89.6       29    203.2    203.1       83     0.000     0.000     0.000     0.000      107        0        0        0        7       27       16    14.306       63     40.4    5.778   -9.900     1.97    0.000    0.000       26        9     2048  Maize_short_Cahul_6June_Optimum_26_NCC.PRM
  Tot(69)        6        6     2049     50.8    586.6   1368.4   443.00      0.0     50.8      0.0      0.0      0.0     83.2       22    173.9    174.0       81     0.000     0.000     0.000     0.000      102        0        0        0        5       30       17    11.235       49     39.4    4.427   -9.900     1.73    0.000    0.000       26        9     2049  Maize_short_Cahul_6June_Optimum_26_NCC.PRM
  Tot(70)        6        6     2050    122.0    584.1   1357.7   443.00      0.0    115.4      6.6      0.0      0.0     87.3       24    181.3    180.9       82     0.000     0.000     0.000     0.000      107        0        0        0       11       33       11    11.250       53     40.6    4.571   -9.900     1.70    0.000    0.000       26        9     2050  Maize_short_Cahul_6June_Optimum_26_NCC.PRM
  Tot(71)        6        6     2051     53.3    514.9   1269.1   443.00      0.0     53.3      0.0      0.0      0.0     79.9       27    177.5    177.9       82     0.000     0.000     0.000     0.000      105        0        0        0       10       29       16    12.451       57     40.6    5.051   -9.900     1.96    0.000    0.000       26        9     2051  Maize_short_Cahul_6June_Optimum_26_NCC.PRM
  Tot(72)        6        6     2052     92.0    473.3   1152.8   443.00      0.0     90.3      1.7      1.3      0.0     90.9       38    204.4    204.3       93     0.000     0.000     0.000     0.000      107        0        0        0       17       10        8    16.771       84     40.1    6.731   -9.900     2.28    0.000    0.000       26        9     2052  Maize_short_Cahul_6June_Optimum_26_NCC.PRM
  Tot(73)        6        6     2053    110.9    535.1   1286.1   443.00      0.0    110.3      0.6      0.2      0.0    125.3       42    185.9    186.0       80     0.000     0.000     0.000     0.000      101        0        0        0        8       25       18    12.146       57     38.2    4.645   -9.900     1.51    0.000    0.000       26        9     2053  Maize_short_Cahul_6June_Optimum_26_NCC.PRM
  Tot(74)        6        6     2054     61.8    651.0   1368.8   443.00      0.0     60.9      0.9      0.0      0.0     97.0       22    163.2    163.2       79     0.000     0.000     0.000     0.000       92        0        0        0        2       35       18     8.947       41     29.2    2.616   -9.900     1.02    0.000    0.000       26        9     2054  Maize_short_Cahul_6June_Optimum_26_NCC.PRM
  Tot(75)        6        6     2055     75.8    584.7   1345.6   443.00      0.0     75.3      0.5      0.0      0.0    106.0       29    170.2    170.2       80     0.000     0.000     0.000     0.000       95        0        0        0        5       31       18    10.228       45     32.3    3.303   -9.900     1.22    0.000    0.000       26        9     2055  Maize_short_Cahul_6June_Optimum_26_NCC.PRM
  Tot(76)        6        6     2056     97.9    582.7   1384.8   442.00      0.0     93.9      4.0      0.0      0.0    108.6       32    190.3    190.3       80     0.000     0.000     0.000     0.000       99        0        0        0        3       24       18    12.023       54     36.3    4.359   -9.900     1.47    0.000    0.000       26        9     2056  Maize_short_Cahul_6June_Optimum_26_NCC.PRM
  Tot(77)        6        6     2057    182.5    545.4   1433.5   442.00      0.0    177.2      5.3      5.0      0.0    163.9       63    227.5    227.4       79     0.000     0.000     0.000     0.000      107        0        0        0        3       17       19    15.327       64     39.9    6.117   -9.900     1.56    0.000    0.000       26        9     2057  Maize_short_Cahul_6June_Optimum_26_NCC.PRM
  Tot(78)        6        6     2058     66.2    549.0   1393.0   442.00      0.0     66.2      0.0      0.0      0.0     88.8       27    187.3    187.3       84     0.000     0.000     0.000     0.000      105        0        0        0        7       24       17    12.977       57     40.3    5.229   -9.900     1.90    0.000    0.000       26        9     2058  Maize_short_Cahul_6June_Optimum_26_NCC.PRM
  Tot(79)        6        6     2059     71.6    597.8   1380.0   442.00      0.0     71.0      0.6      0.2      0.0    100.1       26    178.6    178.6       82     0.000     0.000     0.000     0.000       99        0        0        0        6       31       17    10.751       46     36.4    3.909   -9.900     1.44    0.000    0.000       26        9     2059  Maize_short_Cahul_6June_Optimum_26_NCC.PRM
  Tot(80)        6        6     2060     73.6    547.7   1308.8   442.00      0.0     73.1      0.5      0.0      0.0     98.6       31    180.0    180.0       80     0.000     0.000     0.000     0.000       98        0        0        0        8       27       18    11.594       53     35.3    4.095   -9.900     1.48    0.000    0.000       26        9     2060  Maize_short_Cahul_6June_Optimum_26_NCC.PRM
  Tot(81)        6        6     2061     72.3    576.1   1323.1   441.00      0.0     71.3      1.0      2.5      0.0    102.3       29    172.1    172.1       78     0.000     0.000     0.000     0.000       94        0        0        0        3       29       18    10.676       47     31.4    3.349   -9.900     1.25    0.000    0.000       26        9     2061  Maize_short_Cahul_6June_Optimum_26_NCC.PRM
  Tot(82)        6        6     2062     40.2    606.5   1400.4   441.00      0.0     40.2      0.0      0.0      0.0     74.6       19    170.2    170.2       80     0.000     0.000     0.000     0.000       98        0        0        0        3       32       17    10.489       44     35.2    3.696   -9.900     1.52    0.000    0.000       26        9     2062  Maize_short_Cahul_6June_Optimum_26_NCC.PRM
  Tot(83)        6        6     2063     44.5    626.9   1405.0   441.00      0.0     44.5      0.0      0.0      0.0     77.1       19    166.6    166.6       77     0.000     0.000     0.000     0.000       90        0        0        0        3       33       19     8.976       38     27.1    2.432   -9.900     1.01    0.000    0.000       26        9     2063  Maize_short_Cahul_6June_Optimum_26_NCC.PRM
  Tot(84)        6        6     2064     77.8    569.1   1331.6   440.00      0.0     77.8      0.0      0.0      0.0     88.3       28    187.4    187.4       78     0.000     0.000     0.000     0.000      107        0        0        0       13       26       19    11.671       55     40.3    4.705   -9.900     1.71    0.000    0.000       26        9     2064  Maize_short_Cahul_6June_Optimum_26_NCC.PRM
  Tot(85)        6        6     2065     47.4    614.9   1351.3   440.00      0.0     47.2      0.2      0.0      0.0     82.4       21    168.7    168.7       76     0.000     0.000     0.000     0.000       92        0        0        0        4       30       19     9.683       41     29.0    2.811   -9.900     1.13    0.000    0.000       26        9     2065  Maize_short_Cahul_6June_Optimum_26_NCC.PRM
  Tot(86)        6        6     2066     55.9    604.8   1366.9   440.00      0.0     55.9      0.0      0.0      0.0     87.8       24    167.7    167.7       75     0.000     0.000     0.000     0.000       90        0        0        0        5       31       19     9.186       40     26.0    2.389   -9.900     0.96    0.000    0.000       26        9     2066  Maize_short_Cahul_6June_Optimum_26_NCC.PRM
  Tot(87)        6        6     2067    135.7    503.1   1255.0   439.00      0.0    129.8      5.9     11.9      0.0    135.1       54    196.9    196.9       83     0.000     0.000     0.000     0.000      104        0        0        0       12       18       18    14.341       68     40.1    5.754   -9.900     1.74    0.000    0.000       26        9     2067  Maize_short_Cahul_6June_Optimum_26_NCC.PRM
  Tot(88)        6        6     2068    175.0    513.6   1383.3   439.00      0.0    174.5      0.5      0.6      0.0    108.8       46    270.5    270.1       94     0.000     0.000     0.000     0.000      107        0        0        0        5       10        7    20.194       85     40.1    8.105   -9.900     2.14    0.000    0.000       26        9     2068  Maize_short_Cahul_6June_Optimum_26_NCC.PRM
  Tot(89)        6        6     2069    119.6    581.6   1378.3   438.00      0.0    114.2      5.4      9.7      0.0    111.9       32    177.7    178.2       76     0.000     0.000     0.000     0.000       96        0        0        0        5       26       18    10.927       49     33.3    3.641   -9.900     1.28    0.000    0.000       26        9     2069  Maize_short_Cahul_6June_Optimum_26_NCC.PRM
  Tot(90)        6        6     2070     64.8    580.1   1365.2   437.00      0.0     62.1      2.7      2.0      0.0     90.3       25    175.0    175.0       81     0.000     0.000     0.000     0.000       99        0        0        0        6       30       17    11.307       50     36.3    4.101   -9.900     1.57    0.000    0.000       26        9     2070  Maize_short_Cahul_6June_Optimum_26_NCC.PRM
  Tot(91)        6        6     2071    125.9    519.6   1283.3   437.00      0.0    121.3      4.6      0.0      0.0     95.4       31    187.4    187.4       85     0.000     0.000     0.000     0.000      107        0        0        0       10       28        9    14.081       65     40.7    5.731   -9.900     2.03    0.000    0.000       26        9     2071  Maize_short_Cahul_6June_Optimum_26_NCC.PRM
  Tot(92)        6        6     2072    133.2    486.6   1212.5   436.00      0.0    132.1      1.1      0.2      0.0    128.1       59    214.3    214.1       86     0.000     0.000     0.000     0.000      107        0        0        0       10       10       15    15.821       73     40.1    6.340   -9.900     1.85    0.000    0.000       26        9     2072  Maize_short_Cahul_6June_Optimum_26_NCC.PRM
  Tot(93)        6        6     2073     56.4    586.7   1401.7   436.00      0.0     56.4      0.0      0.0      0.0     77.2       21    167.4    167.6       78     0.000     0.000     0.000     0.000       92        0        0        0        4       31       18     9.657       41     29.1    2.814   -9.900     1.22    0.000    0.000       26        9     2073  Maize_short_Cahul_6June_Optimum_26_NCC.PRM
  Tot(94)        6        6     2074    231.0    425.7   1081.9   435.00      0.0    209.2     21.8     55.7      0.0    115.7       66    221.0    221.0       99     0.000     0.000     0.000     0.000      107        0        0        0       19        7        2    18.792       94     40.4    7.583   -9.900     2.25    0.000    0.000       26        9     2074  Maize_short_Cahul_6June_Optimum_26_NCC.PRM
  Tot(95)        6        6     2075    127.6    529.6   1293.8   435.00      0.0    123.9      3.7      0.0      0.0    104.6       33    177.6    177.5       82     0.000     0.000     0.000     0.000      107        0        0        0       12       30       13    11.709       55     40.6    4.748   -9.900     1.68    0.000    0.000       26        9     2075  Maize_short_Cahul_6June_Optimum_26_NCC.PRM
  Tot(96)        6        6     2076    132.4    544.0   1319.3   434.00      0.0    127.6      4.8      0.0      0.0    104.0       34    199.6    198.6       85     0.000     0.000     0.000     0.000      107        0        0        0       13       27        8    14.018       67     40.7    5.710   -9.900     1.88    0.000    0.000       26        9     2076  Maize_short_Cahul_6June_Optimum_26_NCC.PRM
  Tot(97)        6        6     2077    181.0    489.9   1237.7   433.00      0.0    168.8     12.2      0.0      0.0    103.8       46    254.4    255.5       99     0.000     0.000     0.000     0.000      107        0        0        0       12        9        1    19.578       92     40.1    7.849   -9.900     2.19    0.000    0.000       26        9     2077  Maize_short_Cahul_6June_Optimum_26_NCC.PRM
  Tot(98)        6        6     2078     97.9    612.4   1407.7   433.00      0.0     94.0      3.9      4.8      0.0    116.8       29    167.6    167.7       77     0.000     0.000     0.000     0.000      100        0        0        0        8       33       17     9.422       43     36.3    3.424   -9.900     1.21    0.000    0.000       26        9     2078  Maize_short_Cahul_6June_Optimum_26_NCC.PRM
  Tot(99)        6        6     2079     58.3    613.2   1390.6   432.00      0.0     58.2      0.1      0.0      0.0     89.8       23    171.8    171.8       79     0.000     0.000     0.000     0.000       95        0        0        0        4       31       18    10.049       43     32.2    3.236   -9.900     1.28    0.000    0.000       26        9     2079  Maize_short_Cahul_6June_Optimum_26_NCC.PRM
 Tot(100)        6        6     2080     55.1    573.9   1364.4   432.00      0.0     55.1      0.0      0.0      0.0     88.5       24    169.1    169.1       80     0.000     0.000     0.000     0.000       97        0        0        0        4       31       17    10.367       46     34.4    3.563   -9.900     1.39    0.000    0.000       26        9     2080  Maize_short_Cahul_6June_Optimum_26_NCC.PRM
 Tot(101)        6        6     2081    128.0    583.5   1394.6   431.00      0.0    116.6     11.4     13.7      0.0    131.6       37    174.7    174.7       79     0.000     0.000     0.000     0.000       94        0        0        0        2       29       18    10.453       45     31.2    3.261   -9.900     1.08    0.000    0.000       26        9     2081  Maize_short_Cahul_6June_Optimum_26_NCC.PRM
 Tot(102)        6        6     2082     77.0    526.7   1326.0   431.00      0.0     77.0      0.0      0.0      0.0     92.3       33    198.2    198.2       81     0.000     0.000     0.000     0.000      104        0        0        0        5       16       18    14.076       61     39.9    5.618   -9.900     1.95    0.000    0.000       26        9     2082  Maize_short_Cahul_6June_Optimum_26_NCC.PRM
 Tot(103)        6        6     2083    137.0    559.0   1356.6   430.00      0.0    126.2     10.8     26.3      0.0    118.9       40    193.1    193.1       77     0.000     0.000     0.000     0.000       96        0        0        0        3       22       19    12.141       53     32.9    3.998   -9.900     1.29    0.000    0.000       26        9     2083  Maize_short_Cahul_6June_Optimum_26_NCC.PRM
 Tot(104)        6        6     2084     74.4    600.6   1497.8   429.00      0.0     74.3      0.1      0.0      0.0    108.3       28    174.7    174.7       80     0.000     0.000     0.000     0.000       97        0        0        0        1       30       18    11.052       45     34.2    3.780   -9.900     1.34    0.000    0.000       26        9     2084  Maize_short_Cahul_6June_Optimum_26_NCC.PRM
 Tot(105)        6        6     2085    112.4    507.9   1165.0   429.00      0.0    108.3      4.1      8.2      0.0    119.3       43    181.8    181.8       83     0.000     0.000     0.000     0.000      106        0        0        0       15       25       16    12.177       60     40.6    4.939   -9.900     1.64    0.000    0.000       26        9     2085  Maize_short_Cahul_6June_Optimum_26_NCC.PRM
 Tot(106)        6        6     2086     28.7    602.7   1447.2   428.00      0.0     28.7      0.0      0.0      0.0     64.4       16    163.9    163.9       79     0.000     0.000     0.000     0.000       94        0        0        0        4       33       17     9.186       39     31.3    2.876   -9.900     1.27    0.000    0.000       26        9     2086  Maize_short_Cahul_6June_Optimum_26_NCC.PRM
 Tot(107)        6        6     2087     94.1    570.4   1307.9   428.00      0.0     91.0      3.1      4.4      0.0    114.0       32    176.2    176.2       81     0.000     0.000     0.000     0.000       99        0        0        0        6       32       17    10.670       48     36.4    3.889   -9.900     1.35    0.000    0.000       26        9     2087  Maize_short_Cahul_6June_Optimum_26_NCC.PRM
 Tot(108)        6        6     2088    145.6    539.6   1331.9   427.00      0.0    140.1      5.5     13.8      0.0    132.2       42    179.3    179.3       80     0.000     0.000     0.000     0.000       96        0        0        0        4       29       18    11.288       51     33.4    3.773   -9.900     1.24    0.000    0.000       26        9     2088  Maize_short_Cahul_6June_Optimum_26_NCC.PRM
 Tot(109)        6        6     2089     82.7    553.0   1301.5   427.00      0.0     80.5      2.2      4.5      0.0    100.2       31    180.5    180.5       79     0.000     0.000     0.000     0.000       97        0        0        0        6       29       17    11.186       49     34.5    3.855   -9.900     1.39    0.000    0.000       26        9     2089  Maize_short_Cahul_6June_Optimum_26_NCC.PRM
 Tot(110)        6        6     2090     75.0    565.3   1272.4   426.00      0.0     73.7      1.3      0.0      0.0     98.8       29    181.0    181.0       80     0.000     0.000     0.000     0.000       97        0        0        0        7       27       18    11.190       52     34.3    3.836   -9.900     1.38    0.000    0.000       26        9     2090  Maize_short_Cahul_6June_Optimum_26_NCC.PRM
 Tot(111)        6        6     2091    101.7    572.3   1314.3   425.00      0.0    101.6      0.1      0.0      0.0     88.4       25    205.2    204.8       86     0.000     0.000     0.000     0.000      107        0        0        0       11       31       10    13.546       62     40.7    5.508   -9.900     1.88    0.000    0.000       26        9     2091  Maize_short_Cahul_6June_Optimum_26_NCC.PRM
 Tot(112)        6        6     2092    127.4    502.9   1253.4   425.00      0.0    126.0      1.4      0.3      0.0     94.4       37    236.5    236.5       93     0.000     0.000     0.000     0.000      107        0        0        0        8       19        7    17.903       81     40.5    7.245   -9.900     2.19    0.000    0.000       26        9     2092  Maize_short_Cahul_6June_Optimum_26_NCC.PRM
 Tot(113)        6        6     2093     86.6    531.4   1249.7   424.00      0.0     86.2      0.4      0.0      0.0     90.1       30    194.6    194.8       84     0.000     0.000     0.000     0.000      107        0        0        0       12       29       13    13.535       62     40.6    5.502   -9.900     1.93    0.000    0.000       26        9     2093  Maize_short_Cahul_6June_Optimum_26_NCC.PRM
 Tot(114)        6        6     2094    109.4    591.5   1439.2   424.00      0.0    107.3      2.1      0.1      0.0    106.6       28    196.2    195.6       86     0.000     0.000     0.000     0.000      107        0        0        0        6       36       10    12.459       55     40.8    5.080   -9.900     1.68    0.000    0.000       26        9     2094  Maize_short_Cahul_6June_Optimum_26_NCC.PRM
 Tot(115)        6        6     2095     69.1    586.5   1330.7   423.00      0.0     69.1      0.0      0.0      0.0     94.4       27    189.9    190.6       77     0.000     0.000     0.000     0.000      107        0        0        0        9       28       21    11.536       52     40.1    4.626   -9.900     1.63    0.000    0.000       26        9     2095  Maize_short_Cahul_6June_Optimum_26_NCC.PRM
 Tot(116)        6        6     2096    219.6    444.2   1131.9   423.00      0.0    206.0     13.6     30.3      0.0    123.6       66    234.9    234.9       98     0.000     0.000     0.000     0.000      107        0        0        0       22        8        2    18.360       93     40.4    7.417   -9.900     2.07    0.000    0.000       26        9     2096  Maize_short_Cahul_6June_Optimum_26_NCC.PRM
 Tot(117)        6        6     2097     64.6    530.3   1316.1   422.00      0.0     64.6      0.0      0.0      0.0     90.3       30    178.9    179.0       80     0.000     0.000     0.000     0.000      102        0        0        0        7       24       17    12.264       54     39.3    4.820   -9.900     1.80    0.000    0.000       26        9     2097  Maize_short_Cahul_6June_Optimum_26_NCC.PRM
 Tot(118)        6        6     2098    127.3    527.8   1261.0   422.00      0.0    126.8      0.5      0.0      0.0    113.8       44    212.5    212.2       82     0.000     0.000     0.000     0.000      107        0        0        0       12       14       13    14.811       70     40.2    5.951   -9.900     1.82    0.000    0.000       26        9     2098  Maize_short_Cahul_6June_Optimum_26_NCC.PRM
 Tot(119)        6        6     2099    105.6    518.6   1347.6   421.00      0.0    105.0      0.6      2.2      0.0    106.9       41    207.7    207.8       81     0.000     0.000     0.000     0.000      107        0        0        0        7       26       17    13.999       61     40.4    5.657   -9.900     1.80    0.000    0.000       26        9     2099  Maize_short_Cahul_6June_Optimum_26_NCC.PRM
