AquaCrop 7.0 (August 2022) - Output created on (date) : 24-11-2022   at (time) : 10:00:39

    RunNr     Day1   Month1    Year1     Rain      ETo       GD     CO2      Irri   Infilt   Runoff    Drain   Upflow        E     E/Ex       Tr      TrW   Tr/Trx    SaltIn   SaltOut    SaltUp  SaltProf     Cycle   SaltStr  FertStr  WeedStr  TempStr   ExpStr   StoStr  BioMass  Brelative   HI    Y(dry)  Y(fresh)    WPet      Bin     Bout     DayN   MonthN    YearN
                                           mm       mm  degC.day    ppm        mm       mm       mm       mm       mm       mm        %       mm       mm        %    ton/ha    ton/ha    ton/ha    ton/ha      days       %        %        %        %        %        %    ton/ha        %       %    ton/ha   ton/ha    kg/m3   ton/ha   ton/ha
   Tot(1)        7        5     1981    178.8    503.2   1241.2   340.11      0.0    170.0      8.8     19.7      0.0     88.2       42    267.5    206.6       89     0.000     0.000     0.000     0.000      107        0       42       25       11        5        8    14.212       65     39.7    5.643   -9.900     1.59    0.000    0.000       27        8     1981  Maize_short_Cahul_7May_NonOptimum_26_MOHC.PRM
   Tot(2)        7        5     1982    226.7    493.1   1253.0   341.22      0.0    226.0      0.7      0.0      0.0    101.4       45    280.6    216.3      100     0.000     0.000     0.000     0.000      107        0       42       25        8        3        0    16.329       74     40.0    6.536   -9.900     1.71    0.000    0.000       27        8     1982  Maize_short_Cahul_7May_NonOptimum_26_MOHC.PRM
   Tot(3)        7        5     1983    290.7    494.4   1282.6   342.84      0.0    264.2     26.5     26.7      0.0    101.9       47    287.3    222.1      100     0.000     0.000     0.000     0.000      107        0       42       25        6        3        0    16.444       74     40.1    6.592   -9.900     1.69    0.000    0.000       27        8     1983  Maize_short_Cahul_7May_NonOptimum_26_MOHC.PRM
   Tot(4)        7        5     1984    204.3    469.3   1125.8   344.40      0.0    202.8      1.5      3.1      0.0    133.4       69    263.3    205.4       97     0.000     0.000     0.000     0.000      107        0       42       25       13        2        2    15.311       73     40.1    6.136   -9.900     1.55    0.000    0.000       27        8     1984  Maize_short_Cahul_7May_NonOptimum_26_MOHC.PRM
   Tot(5)        7        5     1985    289.7    484.3   1225.0   345.87      0.0    263.2     26.5     42.7      0.0    114.2       55    279.7    214.5      100     0.000     0.000     0.000     0.000      107        0       42       25       10        1        0    15.946       75     40.0    6.379   -9.900     1.62    0.000    0.000       27        8     1985  Maize_short_Cahul_7May_NonOptimum_26_MOHC.PRM
   Tot(6)        7        5     1986    152.5    543.3   1305.4   347.19      0.0    151.8      0.7      0.0      0.0    106.4       45    261.7    205.8       84     0.000     0.000     0.000     0.000      107        0       42       25        5        8       11    13.631       61     39.6    5.397   -9.900     1.47    0.000    0.000       27        8     1986  Maize_short_Cahul_7May_NonOptimum_26_MOHC.PRM
   Tot(7)        7        5     1987    241.4    495.3   1193.7   348.98      0.0    233.0      8.4      0.0      0.0     96.8       50    305.7    234.9       99     0.000     0.000     0.000     0.000      107        0       42       25       13        4        1    16.129       74     40.1    6.467   -9.900     1.61    0.000    0.000       27        8     1987  Maize_short_Cahul_7May_NonOptimum_26_MOHC.PRM
   Tot(8)        7        5     1988    149.9    506.2   1303.3   351.45      0.0    148.7      1.2      3.3      0.0    130.7       64    236.1    186.4       80     0.000     0.000     0.000     0.000      107        0       42       25        8        8       18    12.055       53     39.2    4.726   -9.900     1.29    0.000    0.000       27        8     1988  Maize_short_Cahul_7May_NonOptimum_26_MOHC.PRM
   Tot(9)        7        5     1989    201.9    495.5   1205.1   352.89      0.0    201.5      0.4      0.0      0.0    102.1       51    296.7    228.1       97     0.000     0.000     0.000     0.000      107        0       42       25       13        4        2    16.064       72     40.2    6.459   -9.900     1.62    0.000    0.000       27        8     1989  Maize_short_Cahul_7May_NonOptimum_26_MOHC.PRM
  Tot(10)        7        5     1990    134.9    531.5   1218.0   354.16      0.0    134.6      0.3      0.0      0.0    122.0       53    234.0    183.8       79     0.000     0.000     0.000     0.000      107        0       42       25       13       13       17    11.869       53     39.8    4.727   -9.900     1.33    0.000    0.000       27        8     1990  Maize_short_Cahul_7May_NonOptimum_26_MOHC.PRM
  Tot(11)        7        5     1991    385.6    438.1   1229.6   355.48      0.0    339.7     45.9     69.7      0.0    119.1       77    296.0    227.1      100     0.000     0.000     0.000     0.000      107        0       42       25       15        0        0    17.345       75     40.0    6.942   -9.900     1.67    0.000    0.000       27        8     1991  Maize_short_Cahul_7May_NonOptimum_26_MOHC.PRM
  Tot(12)        7        5     1992    170.3    523.5   1259.8   356.27      0.0    170.0      0.3      0.0      0.0    127.8       64    262.4    205.0       81     0.000     0.000     0.000     0.000      107        0       42       25       14        6       14    13.317       59     39.2    5.216   -9.900     1.34    0.000    0.000       27        8     1992  Maize_short_Cahul_7May_NonOptimum_26_MOHC.PRM
  Tot(13)        7        5     1993    212.3    519.6   1215.6   356.95      0.0    200.6     11.7     23.7      0.0    126.2       61    265.1    205.2       86     0.000     0.000     0.000     0.000      107        0       42       25       10        6       10    13.655       63     39.7    5.418   -9.900     1.38    0.000    0.000       27        8     1993  Maize_short_Cahul_7May_NonOptimum_26_MOHC.PRM
  Tot(14)        7        5     1994    227.8    533.6   1328.9   358.63      0.0    212.2     15.6     35.4      0.0     99.1       42    269.6    211.7       87     0.000     0.000     0.000     0.000      107        0       42       25        8       11        9    13.788       60     39.7    5.474   -9.900     1.48    0.000    0.000       27        8     1994  Maize_short_Cahul_7May_NonOptimum_26_MOHC.PRM
  Tot(15)        7        5     1995    166.2    526.8   1338.7   360.62      0.0    162.9      3.3      3.5      0.0    105.2       47    265.1    206.7       85     0.000     0.000     0.000     0.000      107        0       42       25        7       10       13    13.537       58     39.7    5.372   -9.900     1.45    0.000    0.000       27        8     1995  Maize_short_Cahul_7May_NonOptimum_26_MOHC.PRM
  Tot(16)        7        5     1996    151.7    562.1   1315.4   362.37      0.0    142.1      9.6      0.0      0.0    116.4       36    182.9    146.2       79     0.000     0.000     0.000     0.000      107        0       42       25        7       26       16     8.755       39     40.3    3.527   -9.900     1.18    0.000    0.000       27        8     1996  Maize_short_Cahul_7May_NonOptimum_26_MOHC.PRM
  Tot(17)        7        5     1997    419.7    471.7   1250.0   363.47      0.0    375.1     44.6      0.3      0.0    121.8       59    281.7    217.7      100     0.000     0.000     0.000     0.000      107        0       42       25       10        2        0    17.133       75     40.0    6.859   -9.900     1.70    0.000    0.000       27        8     1997  Maize_short_Cahul_7May_NonOptimum_26_MOHC.PRM
  Tot(18)        7        5     1998    168.8    516.5   1294.8   366.50      0.0    167.9      0.9      2.6      0.0    120.0       61    269.0    208.8       84     0.000     0.000     0.000     0.000      107        0       42       25       12        4       13    13.732       60     39.4    5.413   -9.900     1.39    0.000    0.000       27        8     1998  Maize_short_Cahul_7May_NonOptimum_26_MOHC.PRM
  Tot(19)        7        5     1999    300.8    546.7   1379.6   368.14      0.0    283.6     17.2      0.0      0.0    112.6       50    332.5    256.5       98     0.000     0.000     0.000     0.000      107        0       42       25        7        4        2    16.881       72     40.1    6.772   -9.900     1.52    0.000    0.000       27        8     1999  Maize_short_Cahul_7May_NonOptimum_26_MOHC.PRM
  Tot(20)        7        5     2000     73.9    617.8   1328.9   369.41      0.0     73.9      0.0      0.0      0.0     81.9       24    209.2    167.7       77     0.000     0.000     0.000     0.000      106        0       42       25        7       24       20     9.938       44     39.6    3.932   -9.900     1.36    0.000    0.000       27        8     2000  Maize_short_Cahul_7May_NonOptimum_26_MOHC.PRM
  Tot(21)        7        5     2001    201.1    552.7   1318.6   371.07      0.0    172.7     28.4     17.8      0.0    115.8       52    262.1    203.1       80     0.000     0.000     0.000     0.000      107        0       42       25       10        3       17    13.023       56     39.0    5.080   -9.900     1.34    0.000    0.000       27        8     2001  Maize_short_Cahul_7May_NonOptimum_26_MOHC.PRM
  Tot(22)        7        5     2002    297.9    563.7   1394.2   373.16      0.0    259.4     38.5      0.0      0.0    114.6       42    288.9    226.0       92     0.000     0.000     0.000     0.000      107        0       42       25        5       24        4    14.860       63     40.8    6.068   -9.900     1.50    0.000    0.000       27        8     2002  Maize_short_Cahul_7May_NonOptimum_26_MOHC.PRM
  Tot(23)        7        5     2003    102.9    602.8   1413.4   375.80      0.0    102.9      0.0      0.0      0.0    101.7       29    219.7    176.9       82     0.000     0.000     0.000     0.000      107        0       42       25        3       26       16    11.268       48     40.1    4.516   -9.900     1.41    0.000    0.000       27        8     2003  Maize_short_Cahul_7May_NonOptimum_26_MOHC.PRM
  Tot(24)        7        5     2004    257.1    519.7   1224.3   377.49      0.0    253.2      3.9      0.0      0.0    135.8       63    301.4    233.4       95     0.000     0.000     0.000     0.000      107        0       42       25       12       13        3    16.024       69     40.4    6.470   -9.900     1.48    0.000    0.000       27        8     2004  Maize_short_Cahul_7May_NonOptimum_26_MOHC.PRM
  Tot(25)        7        5     2005    378.7    520.8   1288.0   379.80      0.0    361.0     17.7     10.1      0.0    144.1       69    326.2    252.0      100     0.000     0.000     0.000     0.000      107        0       42       25        8        3        0    17.524       75     40.1    7.025   -9.900     1.49    0.000    0.000       27        8     2005  Maize_short_Cahul_7May_NonOptimum_26_MOHC.PRM
  Tot(26)        7        5     2006    163.6    573.8   1322.8   381.90      0.0    155.9      7.7     15.6      0.0    122.3       46    230.5    183.8       76     0.000     0.000     0.000     0.000      107        0       42       25        7       19       18    11.150       47     39.9    4.447   -9.900     1.26    0.000    0.000       27        8     2006  Maize_short_Cahul_7May_NonOptimum_26_MOHC.PRM
  Tot(27)        7        5     2007    116.6    680.4   1503.0   383.77      0.0    115.3      1.3      0.0      0.0    111.5       28    210.4    169.0       75     0.000     0.000     0.000     0.000      107        0       42       25        1       28       19     8.812       37     40.1    3.531   -9.900     1.10    0.000    0.000       27        8     2007  Maize_short_Cahul_7May_NonOptimum_26_MOHC.PRM
  Tot(28)        7        5     2008    125.7    607.1   1356.8   385.59      0.0    125.7      0.0      0.0      0.0    100.0       36    250.4    197.2       77     0.000     0.000     0.000     0.000      107        0       42       25        4       20       19    11.702       49     39.6    4.636   -9.900     1.32    0.000    0.000       27        8     2008  Maize_short_Cahul_7May_NonOptimum_26_MOHC.PRM
  Tot(29)        7        5     2009    135.6    616.1   1391.5   387.37      0.0    135.0      0.6      0.0      0.0     91.0       31    264.7    207.9       82     0.000     0.000     0.000     0.000      107        0       42       25        5       12       17    12.227       51     39.5    4.828   -9.900     1.36    0.000    0.000       27        8     2009  Maize_short_Cahul_7May_NonOptimum_26_MOHC.PRM
  Tot(30)        7        5     2010    259.9    550.9   1434.7   389.85      0.0    241.6     18.3      0.8      0.0    128.8       57    321.2    247.6       94     0.000     0.000     0.000     0.000      107        0       42       25        7        2        5    16.366       70     39.9    6.534   -9.900     1.45    0.000    0.000       27        8     2010  Maize_short_Cahul_7May_NonOptimum_26_MOHC.PRM
  Tot(31)        7        5     2011    181.1    568.4   1367.2   391.63      0.0    176.8      4.3      2.4      0.0    123.9       52    273.1    213.5       82     0.000     0.000     0.000     0.000      107        0       42       25        4        6       13    13.765       59     39.7    5.462   -9.900     1.38    0.000    0.000       27        8     2011  Maize_short_Cahul_7May_NonOptimum_26_MOHC.PRM
  Tot(32)        7        5     2012    233.1    640.5   1478.9   393.82      0.0    227.4      5.7      5.3      0.0    161.6       56    262.1    205.8       75     0.000     0.000     0.000     0.000      107        0       42       25        5       18       20    11.412       48     39.6    4.515   -9.900     1.07    0.000    0.000       27        8     2012  Maize_short_Cahul_7May_NonOptimum_26_MOHC.PRM
  Tot(33)        7        5     2013    235.4    581.7   1439.0   396.48      0.0    222.9     12.5      0.0      0.0    123.0       50    300.1    234.2       85     0.000     0.000     0.000     0.000      107        0       42       25        3        6       11    14.896       62     39.4    5.868   -9.900     1.39    0.000    0.000       27        8     2013  Maize_short_Cahul_7May_NonOptimum_26_MOHC.PRM
  Tot(34)        7        5     2014    237.3    550.5   1373.2   398.55      0.0    233.6      3.7      5.5      0.0    144.3       67    295.7    228.3       86     0.000     0.000     0.000     0.000      107        0       42       25        5        7       10    14.986       63     39.8    5.965   -9.900     1.36    0.000    0.000       27        8     2014  Maize_short_Cahul_7May_NonOptimum_26_MOHC.PRM
  Tot(35)        7        5     2015    139.4    626.7   1394.8   401.00      0.0    138.0      1.4      0.0      0.0     98.5       32    250.1    198.3       78     0.000     0.000     0.000     0.000      107        0       42       25        5       12       14    11.711       49     39.4    4.610   -9.900     1.32    0.000    0.000       27        8     2015  Maize_short_Cahul_7May_NonOptimum_26_MOHC.PRM
  Tot(36)        7        5     2016    181.5    571.0   1373.9   403.00      0.0    180.8      0.7      0.3      0.0    147.1       66    254.4    199.1       74     0.000     0.000     0.000     0.000      107        0       42       25        8       11       21    11.927       50     39.3    4.686   -9.900     1.17    0.000    0.000       27        8     2016  Maize_short_Cahul_7May_NonOptimum_26_MOHC.PRM
  Tot(37)        7        5     2017    266.4    570.6   1365.8   405.00      0.0    238.1     28.3      0.0      0.0    103.1       46    341.9    264.1       94     0.000     0.000     0.000     0.000      107        0       42       25        7        5        5    16.626       70     40.1    6.668   -9.900     1.50    0.000    0.000       27        8     2017  Maize_short_Cahul_7May_NonOptimum_26_MOHC.PRM
  Tot(38)        7        5     2018    180.2    562.5   1480.2   408.00      0.0    173.9      6.3      1.1      0.0     97.7       37    290.0    226.7       91     0.000     0.000     0.000     0.000      107        0       42       25        3       10        6    15.790       66     40.1    6.326   -9.900     1.63    0.000    0.000       27        8     2018  Maize_short_Cahul_7May_NonOptimum_26_MOHC.PRM
  Tot(39)        7        5     2019    187.7    591.3   1433.5   410.00      0.0    186.5      1.2      1.0      0.0    157.7       62    253.3    199.6       76     0.000     0.000     0.000     0.000      107        0       42       25        3       15       19    12.340       51     39.4    4.867   -9.900     1.18    0.000    0.000       27        8     2019  Maize_short_Cahul_7May_NonOptimum_26_MOHC.PRM
  Tot(40)        7        5     2020     77.0    639.9   1417.6   412.00      0.0     74.7      2.3      2.5      0.0     98.4       30    187.4    148.4       70     0.000     0.000     0.000     0.000       92        0       42       25       13       22       21     8.390       35     28.4    2.383   -9.900     0.84    0.000    0.000       27        8     2020  Maize_short_Cahul_7May_NonOptimum_26_MOHC.PRM
  Tot(41)        7        5     2021     72.6    617.0   1421.0   414.00      0.0     66.2      6.4     10.1      0.0     85.8       26    179.1    142.1       71     0.000     0.000     0.000     0.000       91        0       42       25        9       25       21     8.103       33     27.6    2.239   -9.900     0.86    0.000    0.000       27        8     2021  Maize_short_Cahul_7May_NonOptimum_26_MOHC.PRM
  Tot(42)        7        5     2022     99.9    646.2   1532.6   417.00      0.0     98.4      1.5      1.5      0.0    113.6       33    198.8    157.2       73     0.000     0.000     0.000     0.000       95        0       42       25        4       21       20     9.314       38     31.8    2.965   -9.900     0.96    0.000    0.000       27        8     2022  Maize_short_Cahul_7May_NonOptimum_26_MOHC.PRM
  Tot(43)        7        5     2023     72.5    707.8   1599.7   419.00      0.0     72.0      0.5      0.3      0.0    102.9       23    173.1    138.7       73     0.000     0.000     0.000     0.000       89        0       42       25        2       29       20     7.421       30     25.8    1.912   -9.900     0.70    0.000    0.000       27        8     2023  Maize_short_Cahul_7May_NonOptimum_26_MOHC.PRM
  Tot(44)        7        5     2024    176.2    613.8   1485.8   421.00      0.0    161.1     15.1     12.6      0.0    101.0       40    273.7    213.5       78     0.000     0.000     0.000     0.000      107        0       42       25        3        6       18    12.893       53     38.7    4.992   -9.900     1.33    0.000    0.000       27        8     2024  Maize_short_Cahul_7May_NonOptimum_26_MOHC.PRM
  Tot(45)        7        5     2025     76.1    645.3   1396.0   423.00      0.0     73.7      2.4      3.7      0.0     86.5       22    163.2    131.3       72     0.000     0.000     0.000     0.000       86        0       42       25       11       32       21     6.779       28     22.8    1.543   -9.900     0.69    0.000    0.000       27        8     2025  Maize_short_Cahul_7May_NonOptimum_26_MOHC.PRM
  Tot(46)        7        5     2026     86.3    701.0   1534.2   424.00      0.0     86.1      0.2      0.0      0.0    109.9       27    189.9    151.5       72     0.000     0.000     0.000     0.000       92        0       42       25        7       26       21     8.364       34     28.5    2.386   -9.900     0.80    0.000    0.000       27        8     2026  Maize_short_Cahul_7May_NonOptimum_26_MOHC.PRM
  Tot(47)        7        5     2027    100.1    661.0   1490.1   426.00      0.0     98.5      1.6      5.5      0.0    102.8       31    206.3    162.5       70     0.000     0.000     0.000     0.000       93        0       42       25        9       20       22     8.767       36     29.1    2.555   -9.900     0.84    0.000    0.000       27        8     2027  Maize_short_Cahul_7May_NonOptimum_26_MOHC.PRM
  Tot(48)        7        5     2028     93.5    684.1   1496.5   428.00      0.0     91.9      1.6      3.4      0.0    111.8       29    179.0    142.5       69     0.000     0.000     0.000     0.000       85        0       42       25        9       29       22     6.990       29     21.5    1.502   -9.900     0.53    0.000    0.000       27        8     2028  Maize_short_Cahul_7May_NonOptimum_26_MOHC.PRM
  Tot(49)        7        5     2029    170.0    605.5   1482.8   429.00      0.0    156.1     13.9     25.8      0.0    128.7       49    226.1    176.6       73     0.000     0.000     0.000     0.000      100        0       42       25        7       10       22    10.826       44     35.6    3.851   -9.900     1.09    0.000    0.000       27        8     2029  Maize_short_Cahul_7May_NonOptimum_26_MOHC.PRM
  Tot(50)        7        5     2030    139.7    725.5   1625.7   431.00      0.0    125.6     14.1      0.0      0.0     93.5       29    259.1    202.3       67     0.000     0.000     0.000     0.000      103        0       42       25        4       10       25    10.389       42     30.6    3.182   -9.900     0.91    0.000    0.000       27        8     2030  Maize_short_Cahul_7May_NonOptimum_26_MOHC.PRM
  Tot(51)        7        5     2031    107.8    621.9   1484.3   432.00      0.0    106.5      1.3      0.0      0.0    114.2       36    207.9    164.0       74     0.000     0.000     0.000     0.000       97        0       42       25        6       20       21     9.925       40     33.3    3.305   -9.900     1.05    0.000    0.000       27        8     2031  Maize_short_Cahul_7May_NonOptimum_26_MOHC.PRM
  Tot(52)        7        5     2032     29.7    749.4   1668.6   433.00      0.0     29.6      0.1      0.0      0.0     68.9       14    160.2    129.7       71     0.000     0.000     0.000     0.000       86        0       42       25        1       34       20     6.286       26     21.5    1.348   -9.900     0.60    0.000    0.000       27        8     2032  Maize_short_Cahul_7May_NonOptimum_26_MOHC.PRM
  Tot(53)        7        5     2033    103.9    694.7   1606.0   435.00      0.0    103.8      0.1      0.0      0.0    111.9       31    208.0    164.6       70     0.000     0.000     0.000     0.000       93        0       42       25        2       20       22     8.842       36     29.2    2.582   -9.900     0.83    0.000    0.000       27        8     2033  Maize_short_Cahul_7May_NonOptimum_26_MOHC.PRM
  Tot(54)        7        5     2034     89.2    606.6   1423.0   436.00      0.0     89.2      0.0      0.0      0.0     99.0       31    207.3    164.5       77     0.000     0.000     0.000     0.000       98        0       42       25        8       23       19     9.894       41     34.7    3.431   -9.900     1.13    0.000    0.000       27        8     2034  Maize_short_Cahul_7May_NonOptimum_26_MOHC.PRM
  Tot(55)        7        5     2035     94.7    635.0   1511.5   437.00      0.0     94.5      0.2      0.0      0.0    102.3       32    210.3    165.2       73     0.000     0.000     0.000     0.000       96        0       42       25        3       18       21     9.479       39     32.3    3.065   -9.900     1.00    0.000    0.000       27        8     2035  Maize_short_Cahul_7May_NonOptimum_26_MOHC.PRM
  Tot(56)        7        5     2036     93.3    658.5   1505.2   438.00      0.0     93.3      0.0      0.0      0.0    102.2       30    200.8    157.9       71     0.000     0.000     0.000     0.000       94        0       42       25        5       18       21     9.053       37     30.5    2.757   -9.900     0.95    0.000    0.000       27        8     2036  Maize_short_Cahul_7May_NonOptimum_26_MOHC.PRM
  Tot(57)        7        5     2037     62.6    649.5   1518.7   438.00      0.0     62.6      0.0      0.0      0.0     89.6       26    182.5    144.3       70     0.000     0.000     0.000     0.000       89        0       42       25        7       25       22     7.947       32     25.5    2.024   -9.900     0.75    0.000    0.000       27        8     2037  Maize_short_Cahul_7May_NonOptimum_26_MOHC.PRM
  Tot(58)        7        5     2038    125.0    568.1   1376.3   439.00      0.0    123.0      2.0      0.2      0.0    123.9       52    223.5    174.1       75     0.000     0.000     0.000     0.000      103        0       42       25        9        7       21    11.429       47     38.4    4.390   -9.900     1.27    0.000    0.000       27        8     2038  Maize_short_Cahul_7May_NonOptimum_26_MOHC.PRM
  Tot(59)        7        5     2039     68.5    685.7   1545.8   440.00      0.0     67.4      1.1      1.0      0.0     96.6       24    172.9    137.9       70     0.000     0.000     0.000     0.000       87        0       42       25        4       28       21     7.363       30     23.6    1.736   -9.900     0.65    0.000    0.000       27        8     2039  Maize_short_Cahul_7May_NonOptimum_26_MOHC.PRM
  Tot(60)        7        5     2040     55.1    665.6   1461.3   440.00      0.0     54.8      0.3      0.0      0.0     64.7       17    189.4    153.1       71     0.000     0.000     0.000     0.000      107        0       42       25        5       34       24     8.295       34     39.7    3.290   -9.900     1.29    0.000    0.000       27        8     2040  Maize_short_Cahul_7May_NonOptimum_26_MOHC.PRM
  Tot(61)        7        5     2041    118.3    659.8   1468.6   441.00      0.0    116.1      2.2      4.1      0.0    122.2       38    206.2    162.2       71     0.000     0.000     0.000     0.000       92        0       42       25       11       21       22     8.761       36     28.3    2.483   -9.900     0.77    0.000    0.000       27        8     2041  Maize_short_Cahul_7May_NonOptimum_26_MOHC.PRM
  Tot(62)        7        5     2042     75.8    573.8   1373.6   441.00      0.0     75.7      0.1      0.3      0.0     94.3       34    201.3    159.0       73     0.000     0.000     0.000     0.000      101        0       42       25        8       24       22     9.789       40     37.4    3.662   -9.900     1.25    0.000    0.000       27        8     2042  Maize_short_Cahul_7May_NonOptimum_26_MOHC.PRM
  Tot(63)        7        5     2043     51.6    700.4   1594.8   441.00      0.0     51.6      0.0      0.0      0.0     82.1       20    180.4    143.4       70     0.000     0.000     0.000     0.000       90        0       42       25        3       26       21     7.966       32     26.8    2.139   -9.900     0.83    0.000    0.000       27        8     2043  Maize_short_Cahul_7May_NonOptimum_26_MOHC.PRM
  Tot(64)        7        5     2044    191.1    564.9   1387.3   442.00      0.0    184.0      7.1     18.3      0.0    127.4       60    263.5    205.2       79     0.000     0.000     0.000     0.000      107        0       42       25       10        6       20    12.737       52     38.8    4.948   -9.900     1.27    0.000    0.000       27        8     2044  Maize_short_Cahul_7May_NonOptimum_26_MOHC.PRM
  Tot(65)        7        5     2045    182.9    653.1   1512.1   442.00      0.0    159.0     23.9     30.5      0.0    142.2       43    200.7    158.3       71     0.000     0.000     0.000     0.000       93        0       42       25        2       21       22     9.096       37     29.2    2.658   -9.900     0.80    0.000    0.000       27        8     2045  Maize_short_Cahul_7May_NonOptimum_26_MOHC.PRM
  Tot(66)        7        5     2046     75.9    750.0   1703.4   442.00      0.0     75.1      0.8      1.0      0.0    104.7       22    166.6    134.3       70     0.000     0.000     0.000     0.000       84        0       42       25        3       33       21     6.375       26     15.7    1.001   -9.900     0.38    0.000    0.000       27        8     2046  Maize_short_Cahul_7May_NonOptimum_26_MOHC.PRM
  Tot(67)        7        5     2047     84.8    632.9   1550.7   442.00      0.0     84.2      0.6      0.9      0.0    110.7       33    183.6    145.9       72     0.000     0.000     0.000     0.000       92        0       42       25        7       25       21     8.624       35     28.5    2.461   -9.900     0.84    0.000    0.000       27        8     2047  Maize_short_Cahul_7May_NonOptimum_26_MOHC.PRM
  Tot(68)        7        5     2048    278.8    593.2   1436.9   442.00      0.0    188.1     90.7     19.0      0.0     96.2       42    298.2    231.7       82     0.000     0.000     0.000     0.000      107        0       42       25        6        5       15    14.001       58     39.2    5.483   -9.900     1.39    0.000    0.000       27        8     2048  Maize_short_Cahul_7May_NonOptimum_26_MOHC.PRM
  Tot(69)        7        5     2049     72.0    627.9   1567.7   443.00      0.0     72.0      0.0      0.0      0.0     96.3       27    188.9    150.2       74     0.000     0.000     0.000     0.000       94        0       42       25        3       23       20     8.836       36     30.9    2.733   -9.900     0.99    0.000    0.000       27        8     2049  Maize_short_Cahul_7May_NonOptimum_26_MOHC.PRM
  Tot(70)        7        5     2050     56.1    646.4   1501.3   443.00      0.0     56.1      0.0      0.0      0.0     84.2       23    175.5    139.7       70     0.000     0.000     0.000     0.000       89        0       42       25        8       27       21     7.841       32     26.0    2.037   -9.900     0.81    0.000    0.000       27        8     2050  Maize_short_Cahul_7May_NonOptimum_26_MOHC.PRM
  Tot(71)        7        5     2051     85.0    651.3   1527.9   443.00      0.0     84.9      0.1      0.0      0.0     98.7       30    202.9    160.0       72     0.000     0.000     0.000     0.000       94        0       42       25        8       19       21     9.011       37     30.4    2.736   -9.900     0.92    0.000    0.000       27        8     2051  Maize_short_Cahul_7May_NonOptimum_26_MOHC.PRM
  Tot(72)        7        5     2052    132.4    628.4   1537.1   443.00      0.0    123.0      9.4     18.3      0.0     96.9       32    228.7    180.5       75     0.000     0.000     0.000     0.000      100        0       42       25        5       21       21    10.365       42     36.4    3.774   -9.900     1.16    0.000    0.000       27        8     2052  Maize_short_Cahul_7May_NonOptimum_26_MOHC.PRM
  Tot(73)        7        5     2053     80.3    684.2   1606.5   443.00      0.0     80.3      0.0      0.0      0.0     93.7       25    201.7    159.7       73     0.000     0.000     0.000     0.000       93        0       42       25        3       23       21     8.644       35     29.5    2.547   -9.900     0.88    0.000    0.000       27        8     2053  Maize_short_Cahul_7May_NonOptimum_26_MOHC.PRM
  Tot(74)        7        5     2054    178.9    639.8   1541.0   443.00      0.0    171.6      7.3      1.3      0.0    126.7       45    268.0    209.3       78     0.000     0.000     0.000     0.000      105        0       42       25        2        9       20    11.961       48     38.8    4.647   -9.900     1.18    0.000    0.000       27        8     2054  Maize_short_Cahul_7May_NonOptimum_26_MOHC.PRM
  Tot(75)        7        5     2055    118.1    667.2   1533.0   443.00      0.0    107.0     11.1     33.3      0.0     95.9       25    177.3    141.9       72     0.000     0.000     0.000     0.000       87        0       42       25        8       30       21     7.201       29     23.8    1.712   -9.900     0.64    0.000    0.000       27        8     2055  Maize_short_Cahul_7May_NonOptimum_26_MOHC.PRM
  Tot(76)        7        5     2056    121.3    684.5   1558.9   442.00      0.0    120.3      1.0      2.3      0.0    118.2       34    219.1    172.3       73     0.000     0.000     0.000     0.000       95        0       42       25        3       18       21     9.566       39     31.5    3.012   -9.900     0.91    0.000    0.000       27        8     2056  Maize_short_Cahul_7May_NonOptimum_26_MOHC.PRM
  Tot(77)        7        5     2057    124.5    648.1   1539.9   442.00      0.0    123.7      0.8      0.0      0.0     96.6       33    252.4    196.9       76     0.000     0.000     0.000     0.000      104        0       42       25        7        7       21    11.715       47     38.3    4.490   -9.900     1.29    0.000    0.000       27        8     2057  Maize_short_Cahul_7May_NonOptimum_26_MOHC.PRM
  Tot(78)        7        5     2058     59.7    649.3   1540.2   442.00      0.0     59.1      0.6      0.0      0.0     81.1       22    188.3    150.4       75     0.000     0.000     0.000     0.000       92        0       42       25        8       28       19     8.302       34     29.2    2.425   -9.900     0.91    0.000    0.000       27        8     2058  Maize_short_Cahul_7May_NonOptimum_26_MOHC.PRM
  Tot(79)        7        5     2059     73.9    661.0   1514.7   442.00      0.0     73.8      0.1      0.0      0.0     92.4       26    200.8    161.0       71     0.000     0.000     0.000     0.000      103        0       42       25        7       31       24     8.918       36     39.2    3.500   -9.900     1.20    0.000    0.000       27        8     2059  Maize_short_Cahul_7May_NonOptimum_26_MOHC.PRM
  Tot(80)        7        5     2060     87.6    586.2   1417.8   442.00      0.0     86.0      1.6      2.9      0.0     99.8       36    201.8    158.7       73     0.000     0.000     0.000     0.000       96        0       42       25       11       18       21     9.851       40     32.5    3.203   -9.900     1.07    0.000    0.000       27        8     2060  Maize_short_Cahul_7May_NonOptimum_26_MOHC.PRM
  Tot(81)        7        5     2061     50.1    653.4   1550.5   441.00      0.0     50.1      0.0      0.0      0.0     83.4       22    174.9    139.6       71     0.000     0.000     0.000     0.000       90        0       42       25        6       27       20     7.959       32     27.0    2.146   -9.900     0.86    0.000    0.000       27        8     2061  Maize_short_Cahul_7May_NonOptimum_26_MOHC.PRM
  Tot(82)        7        5     2062     79.5    656.7   1516.6   441.00      0.0     79.5      0.0      0.0      0.0    103.0       26    175.3    140.7       74     0.000     0.000     0.000     0.000       92        0       42       25        5       31       19     7.728       31     29.0    2.241   -9.900     0.85    0.000    0.000       27        8     2062  Maize_short_Cahul_7May_NonOptimum_26_MOHC.PRM
  Tot(83)        7        5     2063    157.5    628.2   1518.5   441.00      0.0    149.6      7.9     11.9      0.0    129.7       41    193.7    152.5       71     0.000     0.000     0.000     0.000       92        0       42       25        8       21       22     8.766       36     28.4    2.489   -9.900     0.80    0.000    0.000       27        8     2063  Maize_short_Cahul_7May_NonOptimum_26_MOHC.PRM
  Tot(84)        7        5     2064    145.3    630.3   1538.1   440.00      0.0    133.7     11.6     22.8      0.0    122.4       39    195.0    153.8       71     0.000     0.000     0.000     0.000       92        0       42       25        4       21       22     8.934       36     28.3    2.531   -9.900     0.83    0.000    0.000       27        8     2064  Maize_short_Cahul_7May_NonOptimum_26_MOHC.PRM
  Tot(85)        7        5     2065     57.9    740.8   1610.3   440.00      0.0     57.6      0.3      0.0      0.0     92.1       19    160.9    129.9       69     0.000     0.000     0.000     0.000       83        0       42       25        2       34       21     6.055       24     20.2    1.220   -9.900     0.49    0.000    0.000       27        8     2065  Maize_short_Cahul_7May_NonOptimum_26_MOHC.PRM
  Tot(86)        7        5     2066    283.4    596.4   1435.6   440.00      0.0    211.7     71.7      2.8      0.0    139.3       46    197.8    156.5       74     0.000     0.000     0.000     0.000       91        0       42       25        7       25       20     8.784       36     28.1    2.466   -9.900     0.78    0.000    0.000       27        8     2066  Maize_short_Cahul_7May_NonOptimum_26_MOHC.PRM
  Tot(87)        7        5     2067     83.1    641.7   1480.4   439.00      0.0     82.3      0.8      0.0      0.0     79.9       23    204.6    164.3       73     0.000     0.000     0.000     0.000      107        0       42       25        4       32       19     9.160       37     40.2    3.685   -9.900     1.30    0.000    0.000       27        8     2067  Maize_short_Cahul_7May_NonOptimum_26_MOHC.PRM
  Tot(88)        7        5     2068    235.1    543.6   1347.6   439.00      0.0    216.8     18.3     25.4      0.0    100.4       49    286.3    221.2       84     0.000     0.000     0.000     0.000      107        0       42       25       10        3       11    14.559       60     39.4    5.731   -9.900     1.48    0.000    0.000       27        8     2068  Maize_short_Cahul_7May_NonOptimum_26_MOHC.PRM
  Tot(89)        7        5     2069    111.8    564.8   1406.9   438.00      0.0    110.6      1.2      3.5      0.0    104.3       43    224.0    177.0       76     0.000     0.000     0.000     0.000      100        0       42       25       10       13       20    10.927       44     36.2    3.960   -9.900     1.21    0.000    0.000       27        8     2069  Maize_short_Cahul_7May_NonOptimum_26_MOHC.PRM
  Tot(90)        7        5     2070     71.6    594.8   1438.6   437.00      0.0     63.4      8.2     23.5      0.0     70.4       23    178.4    141.3       71     0.000     0.000     0.000     0.000       91        0       42       25        9       24       21     8.365       34     27.6    2.310   -9.900     0.94    0.000    0.000       27        8     2070  Maize_short_Cahul_7May_NonOptimum_26_MOHC.PRM
  Tot(91)        7        5     2071    247.8    574.3   1408.6   437.00      0.0    224.1     23.7      4.0      0.0    128.2       52    244.2    189.7       75     0.000     0.000     0.000     0.000      107        0       42       25        7       14       18    12.089       50     39.5    4.769   -9.900     1.28    0.000    0.000       27        8     2071  Maize_short_Cahul_7May_NonOptimum_26_MOHC.PRM
  Tot(92)        7        5     2072    100.6    583.1   1378.1   436.00      0.0     99.0      1.6      2.0      0.0    113.0       39    197.3    156.8       76     0.000     0.000     0.000     0.000       96        0       42       25        9       20       20     9.565       39     32.9    3.147   -9.900     1.02    0.000    0.000       27        8     2072  Maize_short_Cahul_7May_NonOptimum_26_MOHC.PRM
  Tot(93)        7        5     2073     54.4    688.6   1610.5   436.00      0.0     54.4      0.0      0.0      0.0     88.3       20    162.7    130.7       72     0.000     0.000     0.000     0.000       86        0       42       25        1       32       20     6.685       27     22.9    1.529   -9.900     0.62    0.000    0.000       27        8     2073  Maize_short_Cahul_7May_NonOptimum_26_MOHC.PRM
  Tot(94)        7        5     2074    100.9    627.8   1394.9   435.00      0.0    100.8      0.1      0.0      0.0     95.6       32    227.1    177.9       75     0.000     0.000     0.000     0.000      101        0       42       25       11       14       20    10.572       44     37.2    3.930   -9.900     1.23    0.000    0.000       27        8     2074  Maize_short_Cahul_7May_NonOptimum_26_MOHC.PRM
  Tot(95)        7        5     2075    115.2    579.1   1449.8   435.00      0.0    115.0      0.2      0.0      0.0    130.4       49    202.3    158.5       71     0.000     0.000     0.000     0.000       99        0       42       25        7       14       22    10.283       42     34.9    3.589   -9.900     1.10    0.000    0.000       27        8     2075  Maize_short_Cahul_7May_NonOptimum_26_MOHC.PRM
  Tot(96)        7        5     2076     80.4    710.1   1616.9   434.00      0.0     79.6      0.8      0.0      0.0    101.9       26    188.9    149.9       69     0.000     0.000     0.000     0.000       89        0       42       25        4       25       22     7.902       32     25.3    1.998   -9.900     0.70    0.000    0.000       27        8     2076  Maize_short_Cahul_7May_NonOptimum_26_MOHC.PRM
  Tot(97)        7        5     2077     75.0    695.3   1499.7   433.00      0.0     75.0      0.0      0.0      0.0    103.7       26    177.7    141.6       70     0.000     0.000     0.000     0.000       87        0       42       25        4       28       21     7.377       30     24.0    1.769   -9.900     0.64    0.000    0.000       27        8     2077  Maize_short_Cahul_7May_NonOptimum_26_MOHC.PRM
  Tot(98)        7        5     2078    173.0    608.5   1533.4   433.00      0.0    170.6      2.4      2.4      0.0    148.4       55    242.7    189.5       77     0.000     0.000     0.000     0.000      102        0       42       25        3       12       21    11.437       46     38.0    4.349   -9.900     1.12    0.000    0.000       27        8     2078  Maize_short_Cahul_7May_NonOptimum_26_MOHC.PRM
  Tot(99)        7        5     2079    110.6    649.6   1510.4   432.00      0.0    108.3      2.3      0.0      0.0    101.5       29    199.2    157.4       71     0.000     0.000     0.000     0.000       95        0       42       25        6       21       21     9.053       37     31.2    2.828   -9.900     1.00    0.000    0.000       27        8     2079  Maize_short_Cahul_7May_NonOptimum_26_MOHC.PRM
 Tot(100)        7        5     2080     91.2    647.6   1472.1   432.00      0.0     90.4      0.8      1.4      0.0    107.5       33    197.2    155.9       70     0.000     0.000     0.000     0.000       92        0       42       25        8       23       22     8.754       36     28.3    2.476   -9.900     0.82    0.000    0.000       27        8     2080  Maize_short_Cahul_7May_NonOptimum_26_MOHC.PRM
 Tot(101)        7        5     2081     86.5    697.0   1630.8   431.00      0.0     86.4      0.1      0.0      0.0    110.1       26    176.5    141.0       71     0.000     0.000     0.000     0.000      107        0       42       25        2       29       36     7.322       30     24.0    1.757   -9.900     0.61    0.000    0.000       27        8     2081  Maize_short_Cahul_7May_NonOptimum_26_MOHC.PRM
 Tot(102)        7        5     2082     81.7    700.4   1585.6   431.00      0.0     78.8      2.9     10.7      0.0    100.9       24    166.9    134.1       70     0.000     0.000     0.000     0.000       85        0       42       25        4       31       21     6.838       28     22.1    1.512   -9.900     0.58    0.000    0.000       27        8     2082  Maize_short_Cahul_7May_NonOptimum_26_MOHC.PRM
 Tot(103)        7        5     2083     96.6    683.5   1578.0   430.00      0.0     96.2      0.4      0.0      0.0    108.3       26    174.5    139.5       70     0.000     0.000     0.000     0.000       87        0       42       25        3       29       21     7.081       29     24.0    1.701   -9.900     0.67    0.000    0.000       27        8     2083  Maize_short_Cahul_7May_NonOptimum_26_MOHC.PRM
 Tot(104)        7        5     2084    103.2    669.1   1560.3   429.00      0.0    102.9      0.3      0.0      0.0     96.4       31    228.7    179.4       71     0.000     0.000     0.000     0.000       96        0       42       25        6       16       22     9.760       40     31.9    3.118   -9.900     0.97    0.000    0.000       27        8     2084  Maize_short_Cahul_7May_NonOptimum_26_MOHC.PRM
 Tot(105)        7        5     2085     75.7    592.7   1448.1   429.00      0.0     73.5      2.2      4.9      0.0     93.6       31    188.9    148.8       72     0.000     0.000     0.000     0.000       94        0       42       25        8       20       21     9.072       37     30.6    2.774   -9.900     1.00    0.000    0.000       27        8     2085  Maize_short_Cahul_7May_NonOptimum_26_MOHC.PRM
 Tot(106)        7        5     2086    137.0    584.2   1375.0   428.00      0.0    122.4     14.6     20.6      0.0    103.9       40    219.0    171.1       73     0.000     0.000     0.000     0.000       99        0       42       25       10       11       21    10.353       43     34.9    3.618   -9.900     1.14    0.000    0.000       27        8     2086  Maize_short_Cahul_7May_NonOptimum_26_MOHC.PRM
 Tot(107)        7        5     2087    119.3    697.2   1615.8   428.00      0.0    111.6      7.7      8.8      0.0    111.9       26    168.5    135.5       72     0.000     0.000     0.000     0.000      107        0       42       25        3       32       38     6.573       27     21.3    1.399   -9.900     0.50    0.000    0.000       27        8     2087  Maize_short_Cahul_7May_NonOptimum_26_MOHC.PRM
 Tot(108)        7        5     2088     93.8    600.7   1425.1   427.00      0.0     92.0      1.8      6.6      0.0    103.1       34    187.3    147.7       71     0.000     0.000     0.000     0.000       92        0       42       25       13       22       21     8.876       36     28.8    2.554   -9.900     0.92    0.000    0.000       27        8     2088  Maize_short_Cahul_7May_NonOptimum_26_MOHC.PRM
 Tot(109)        7        5     2089    154.0    598.8   1521.1   427.00      0.0    153.2      0.8      0.0      0.0    141.3       47    220.9    174.9       77     0.000     0.000     0.000     0.000      102        0       42       25        4       24       20    10.453       43     38.8    4.051   -9.900     1.16    0.000    0.000       27        8     2089  Maize_short_Cahul_7May_NonOptimum_26_MOHC.PRM
 Tot(110)        7        5     2090     65.9    662.0   1589.0   426.00      0.0     65.9      0.0      0.0      0.0     92.1       24    182.4    145.4       74     0.000     0.000     0.000     0.000       91        0       42       25        4       27       20     8.020       33     27.8    2.230   -9.900     0.82    0.000    0.000       27        8     2090  Maize_short_Cahul_7May_NonOptimum_26_MOHC.PRM
 Tot(111)        7        5     2091    137.2    598.8   1505.9   425.00      0.0    136.2      1.0      0.0      0.0    112.0       41    233.4    183.3       73     0.000     0.000     0.000     0.000      107        0       42       25        5       25       20    11.186       46     39.7    4.437   -9.900     1.28    0.000    0.000       27        8     2091  Maize_short_Cahul_7May_NonOptimum_26_MOHC.PRM
 Tot(112)        7        5     2092     92.0    569.7   1392.5   425.00      0.0     92.0      0.0      0.0      0.0     92.0       37    225.5    178.1       75     0.000     0.000     0.000     0.000      105        0       42       25       13       13       20    11.609       48     38.7    4.494   -9.900     1.42    0.000    0.000       27        8     2092  Maize_short_Cahul_7May_NonOptimum_26_MOHC.PRM
 Tot(113)        7        5     2093     75.2    636.2   1500.2   424.00      0.0     75.1      0.1      0.0      0.0     90.0       28    202.6    159.5       72     0.000     0.000     0.000     0.000       94        0       42       25        6       20       21     9.139       37     30.4    2.776   -9.900     0.96    0.000    0.000       27        8     2093  Maize_short_Cahul_7May_NonOptimum_26_MOHC.PRM
 Tot(114)        7        5     2094    167.3    561.8   1389.4   424.00      0.0    126.0     41.3     43.0      0.0    104.4       38    191.5    151.1       75     0.000     0.000     0.000     0.000       93        0       42       25       11       21       20     9.051       37     30.0    2.719   -9.900     0.93    0.000    0.000       27        8     2094  Maize_short_Cahul_7May_NonOptimum_26_MOHC.PRM
 Tot(115)        7        5     2095    142.2    594.0   1427.9   423.00      0.0    141.3      0.9      0.0      0.0    103.2       46    263.8    204.7       76     0.000     0.000     0.000     0.000      107        0       42       25       10        3       21    12.247       51     38.3    4.696   -9.900     1.28    0.000    0.000       27        8     2095  Maize_short_Cahul_7May_NonOptimum_26_MOHC.PRM
 Tot(116)        7        5     2096     51.4    710.6   1619.4   423.00      0.0     51.4      0.0      0.0      0.0     87.2       18    163.8    133.2       74     0.000     0.000     0.000     0.000       89        0       42       25        2       35       19     6.516       27     26.0    1.696   -9.900     0.69    0.000    0.000       27        8     2096  Maize_short_Cahul_7May_NonOptimum_26_MOHC.PRM
 Tot(117)        7        5     2097     75.1    624.4   1501.4   422.00      0.0     75.0      0.1      0.0      0.0     95.6       31    200.8    157.7       71     0.000     0.000     0.000     0.000       96        0       42       25        6       18       22     9.623       40     32.0    3.081   -9.900     1.05    0.000    0.000       27        8     2097  Maize_short_Cahul_7May_NonOptimum_26_MOHC.PRM
 Tot(118)        7        5     2098     80.6    588.2   1295.1   422.00      0.0     78.0      2.6      9.0      0.0     75.3       27    209.1    166.4       71     0.000     0.000     0.000     0.000      107        0       42       25       13       27       22     9.846       41     39.9    3.931   -9.900     1.38    0.000    0.000       27        8     2098  Maize_short_Cahul_7May_NonOptimum_26_MOHC.PRM
 Tot(119)        7        5     2099     71.5    742.9   1602.9   421.00      0.0     65.6      5.9     13.8      0.0     84.6       18    169.1    136.3       68     0.000     0.000     0.000     0.000       85        0       42       25        9       32       22     6.426       26     21.5    1.380   -9.900     0.55    0.000    0.000       27        8     2099  Maize_short_Cahul_7May_NonOptimum_26_MOHC.PRM
