AquaCrop 7.0 (August 2022) - Output created on (date) : 23-11-2022   at (time) : 13:05:26

    RunNr     Day1   Month1    Year1     Rain      ETo       GD     CO2      Irri   Infilt   Runoff    Drain   Upflow        E     E/Ex       Tr      TrW   Tr/Trx    SaltIn   SaltOut    SaltUp  SaltProf     Cycle   SaltStr  FertStr  WeedStr  TempStr   ExpStr   StoStr  BioMass  Brelative   HI    Y(dry)  Y(fresh)    WPet      Bin     Bout     DayN   MonthN    YearN
                                           mm       mm  degC.day    ppm        mm       mm       mm       mm       mm       mm        %       mm       mm        %    ton/ha    ton/ha    ton/ha    ton/ha      days       %        %        %        %        %        %    ton/ha        %       %    ton/ha   ton/ha    kg/m3   ton/ha   ton/ha
   Tot(1)        6        6     1981    179.0    479.2   1259.0   340.11      0.0    174.7      4.3      0.0      0.0    132.9       57    220.5    219.1       90     0.000     0.000     0.000     0.000      107        0        0        0       13       17        7    16.102       81     40.7    6.560   -9.900     1.86    0.000    0.000       26        9     1981  Maize_short_Cahul_6June_Optimum_26_MOHC.PRM
   Tot(2)        6        6     1982    226.5    453.3   1300.2   341.22      0.0    224.6      1.9      0.0      0.0    156.5       76    260.5    260.9       99     0.000     0.000     0.000     0.000      107        0        0        0        6        2        1    21.545       96     40.1    8.646   -9.900     2.07    0.000    0.000       26        9     1982  Maize_short_Cahul_6June_Optimum_26_MOHC.PRM
   Tot(3)        6        6     1983    282.8    466.4   1248.7   342.84      0.0    248.9     33.9     46.7      0.0    132.2       64    257.0    257.3       99     0.000     0.000     0.000     0.000      107        0        0        0        9        4        1    20.228       95     40.0    8.092   -9.900     2.08    0.000    0.000       26        9     1983  Maize_short_Cahul_6June_Optimum_26_MOHC.PRM
   Tot(4)        6        6     1984    143.5    453.8   1166.3   344.40      0.0    140.3      3.2      4.9      0.0    123.3       58    220.8    220.0       91     0.000     0.000     0.000     0.000      107        0        0        0       11        9        9    17.880       83     40.2    7.193   -9.900     2.09    0.000    0.000       26        9     1984  Maize_short_Cahul_6June_Optimum_26_MOHC.PRM
   Tot(5)        6        6     1985    324.4    461.9   1179.1   345.87      0.0    287.6     36.8     49.1      0.0    135.8       70    258.6    259.2       99     0.000     0.000     0.000     0.000      107        0        0        0       16        4        0    19.185       96     40.2    7.717   -9.900     1.96    0.000    0.000       26        9     1985  Maize_short_Cahul_6June_Optimum_26_MOHC.PRM
   Tot(6)        6        6     1986    149.3    523.6   1330.5   347.19      0.0    143.2      6.1      7.2      0.0    118.6       48    231.7    232.3       83     0.000     0.000     0.000     0.000      107        0        0        0        8       15       14    15.738       73     40.4    6.352   -9.900     1.81    0.000    0.000       26        9     1986  Maize_short_Cahul_6June_Optimum_26_MOHC.PRM
   Tot(7)        6        6     1987    210.0    499.3   1282.2   348.98      0.0    199.7     10.3      5.6      0.0    126.8       54    262.1    260.7       98     0.000     0.000     0.000     0.000      107        0        0        0        9        6        2    19.599       94     40.3    7.891   -9.900     2.03    0.000    0.000       26        9     1987  Maize_short_Cahul_6June_Optimum_26_MOHC.PRM
   Tot(8)        6        6     1988    164.3    492.5   1317.1   351.45      0.0    154.4      9.9      0.0      0.0    107.7       41    206.4    207.0       87     0.000     0.000     0.000     0.000      107        0        0        0        9       24        8    14.613       69     40.7    5.955   -9.900     1.90    0.000    0.000       26        9     1988  Maize_short_Cahul_6June_Optimum_26_MOHC.PRM
   Tot(9)        6        6     1989    263.2    446.7   1239.6   352.89      0.0    252.6     10.6      6.9      0.0    133.6       65    242.4    241.5      100     0.000     0.000     0.000     0.000      107        0        0        0       11        3        0    19.953       97     40.1    8.005   -9.900     2.13    0.000    0.000       26        9     1989  Maize_short_Cahul_6June_Optimum_26_MOHC.PRM
  Tot(10)        6        6     1990    126.8    508.1   1226.1   354.16      0.0    126.2      0.6      0.0      0.0    119.2       45    208.6    210.1       87     0.000     0.000     0.000     0.000      107        0        0        0       13       18       13    14.494       73     40.4    5.863   -9.900     1.79    0.000    0.000       26        9     1990  Maize_short_Cahul_6June_Optimum_26_MOHC.PRM
  Tot(11)        6        6     1991    222.0    443.1   1313.0   355.48      0.0    209.4     12.6     21.9      0.0    124.4       61    240.4    239.0      100     0.000     0.000     0.000     0.000      107        0        0        0        8        3        0    20.349       97     40.2    8.172   -9.900     2.24    0.000    0.000       26        9     1991  Maize_short_Cahul_6June_Optimum_26_MOHC.PRM
  Tot(12)        6        6     1992    139.3    517.8   1313.1   356.27      0.0    135.9      3.4      6.6      0.0    123.4       48    211.3    213.1       82     0.000     0.000     0.000     0.000      107        0        0        0       10       22       15    13.783       66     40.5    5.588   -9.900     1.67    0.000    0.000       26        9     1992  Maize_short_Cahul_6June_Optimum_26_MOHC.PRM
  Tot(13)        6        6     1993    141.0    501.0   1168.2   356.95      0.0    140.8      0.2      0.0      0.0    104.1       42    227.4    226.3       93     0.000     0.000     0.000     0.000      107        0        0        0       16       16        5    16.569       84     40.7    6.735   -9.900     2.03    0.000    0.000       26        9     1993  Maize_short_Cahul_6June_Optimum_26_MOHC.PRM
  Tot(14)        6        6     1994    201.5    505.3   1432.3   358.63      0.0    160.3     41.2     32.0      0.0     90.1       36    252.3    252.7       90     0.000     0.000     0.000     0.000      107        0        0        0        3       18        8    18.486       80     40.7    7.518   -9.900     2.20    0.000    0.000       26        9     1994  Maize_short_Cahul_6June_Optimum_26_MOHC.PRM
  Tot(15)        6        6     1995    191.4    495.2   1340.3   360.62      0.0    188.1      3.3      0.0      0.0    121.7       48    237.3    237.7       95     0.000     0.000     0.000     0.000      107        0        0        0        9       16        3    18.156       87     40.7    7.387   -9.900     2.06    0.000    0.000       26        9     1995  Maize_short_Cahul_6June_Optimum_26_MOHC.PRM
  Tot(16)        6        6     1996    216.5    496.5   1218.6   362.37      0.0    188.4     28.1      0.0      0.0     84.8       28    192.8    192.6       97     0.000     0.000     0.000     0.000      107        0        0        0       17       27        1    14.902       79     40.9    6.096   -9.900     2.20    0.000    0.000       26        9     1996  Maize_short_Cahul_6June_Optimum_26_MOHC.PRM
  Tot(17)        6        6     1997    374.7    437.8   1219.0   363.47      0.0    331.6     43.1     21.0      0.0    154.2       73    216.0    216.5      100     0.000     0.000     0.000     0.000      107        0        0        0       13        1        0    19.216       97     40.0    7.687   -9.900     2.08    0.000    0.000       26        9     1997  Maize_short_Cahul_6June_Optimum_26_MOHC.PRM
  Tot(18)        6        6     1998    210.6    490.9   1290.8   366.50      0.0    202.8      7.8      2.7      0.0    137.5       57    216.7    215.7       88     0.000     0.000     0.000     0.000      107        0        0        0       11       22        7    15.320       74     40.7    6.242   -9.900     1.76    0.000    0.000       26        9     1998  Maize_short_Cahul_6June_Optimum_26_MOHC.PRM
  Tot(19)        6        6     1999    276.9    515.7   1442.8   368.14      0.0    264.5     12.4     18.9      0.0    146.3       54    262.2    260.6      100     0.000     0.000     0.000     0.000      107        0        0        0        5       12        0    20.568       92     40.4    8.314   -9.900     2.04    0.000    0.000       26        9     1999  Maize_short_Cahul_6June_Optimum_26_MOHC.PRM
  Tot(20)        6        6     2000    158.9    542.0   1294.7   369.41      0.0    148.1     10.8      0.0      0.0     98.1       31    203.4    206.0       85     0.000     0.000     0.000     0.000      107        0        0        0       12       25        8    13.776       66     40.7    5.610   -9.900     1.86    0.000    0.000       26        9     2000  Maize_short_Cahul_6June_Optimum_26_MOHC.PRM
  Tot(21)        6        6     2001    221.7    527.9   1398.2   371.07      0.0    201.1     20.6      0.3      0.0    135.1       46    194.9    195.0       82     0.000     0.000     0.000     0.000      107        0        0        0        6       27       12    12.690       57     40.6    5.151   -9.900     1.56    0.000    0.000       26        9     2001  Maize_short_Cahul_6June_Optimum_26_MOHC.PRM
  Tot(22)        6        6     2002    281.0    528.2   1422.2   373.16      0.0    245.2     35.8     12.8      0.0    108.3       38    260.4    259.6      100     0.000     0.000     0.000     0.000      107        0        0        0        6        5        0    20.424       92     40.0    8.170   -9.900     2.22    0.000    0.000       26        9     2002  Maize_short_Cahul_6June_Optimum_26_MOHC.PRM
  Tot(23)        6        6     2003    140.3    548.0   1349.4   375.80      0.0    134.9      5.4      0.0      0.0    100.9       34    221.2    221.7       86     0.000     0.000     0.000     0.000      107        0        0        0        9       17       10    15.517       73     40.4    6.273   -9.900     1.95    0.000    0.000       26        9     2003  Maize_short_Cahul_6June_Optimum_26_MOHC.PRM
  Tot(24)        6        6     2004    228.7    508.4   1288.8   377.49      0.0    221.5      7.2      3.7      0.0    113.5       45    258.8    258.0      100     0.000     0.000     0.000     0.000      107        0        0        0        9        6        0    20.096       94     40.2    8.071   -9.900     2.17    0.000    0.000       26        9     2004  Maize_short_Cahul_6June_Optimum_26_MOHC.PRM
  Tot(25)        6        6     2005    352.7    506.6   1346.7   379.80      0.0    327.3     25.4     34.4      0.0    134.4       59    291.2    289.5      100     0.000     0.000     0.000     0.000      107        0        0        0        5        2        0    21.779       96     40.0    8.720   -9.900     2.05    0.000    0.000       26        9     2005  Maize_short_Cahul_6June_Optimum_26_MOHC.PRM
  Tot(26)        6        6     2006    156.6    550.8   1344.7   381.90      0.0    154.3      2.3      0.0      0.0    113.1       36    238.3    239.7       93     0.000     0.000     0.000     0.000      107        0        0        0        6       24        5    16.857       75     40.6    6.849   -9.900     1.95    0.000    0.000       26        9     2006  Maize_short_Cahul_6June_Optimum_26_MOHC.PRM
  Tot(27)        6        6     2007    159.1    626.4   1410.5   383.77      0.0    157.4      1.7      0.0      0.0    124.0       31    229.3    229.4       92     0.000     0.000     0.000     0.000      107        0        0        0        8       25        6    14.814       69     40.2    5.960   -9.900     1.69    0.000    0.000       26        9     2007  Maize_short_Cahul_6June_Optimum_26_MOHC.PRM
  Tot(28)        6        6     2008    197.7    569.5   1367.7   385.59      0.0    188.2      9.5      0.0      0.0    129.2       43    217.9    218.9       80     0.000     0.000     0.000     0.000      107        0        0        0       12       19       12    13.692       67     40.3    5.520   -9.900     1.59    0.000    0.000       26        9     2008  Maize_short_Cahul_6June_Optimum_26_MOHC.PRM
  Tot(29)        6        6     2009    176.3    588.9   1438.2   387.37      0.0    169.3      7.0      0.0      0.0    132.6       41    237.0    236.4       86     0.000     0.000     0.000     0.000      107        0        0        0        4       23       12    15.251       66     40.6    6.188   -9.900     1.67    0.000    0.000       26        9     2009  Maize_short_Cahul_6June_Optimum_26_MOHC.PRM
  Tot(30)        6        6     2010    247.1    521.6   1434.9   389.85      0.0    228.6     18.5     34.5      0.0    144.4       58    242.2    241.9       87     0.000     0.000     0.000     0.000      107        0        0        0        7       15        9    17.023       76     40.6    6.909   -9.900     1.79    0.000    0.000       26        9     2010  Maize_short_Cahul_6June_Optimum_26_MOHC.PRM
  Tot(31)        6        6     2011    144.1    558.1   1426.3   391.63      0.0    132.7     11.4     12.7      0.0    119.0       40    215.7    216.9       81     0.000     0.000     0.000     0.000      104        0        0        0        3       20       18    13.821       58     40.0    5.525   -9.900     1.65    0.000    0.000       26        9     2011  Maize_short_Cahul_6June_Optimum_26_MOHC.PRM
  Tot(32)        6        6     2012    172.7    628.8   1504.7   393.82      0.0    166.6      6.1      6.3      0.0    136.7       36    225.7    224.3       82     0.000     0.000     0.000     0.000      107        0        0        0        3       30       14    13.332       57     40.3    5.372   -9.900     1.48    0.000    0.000       26        9     2012  Maize_short_Cahul_6June_Optimum_26_MOHC.PRM
  Tot(33)        6        6     2013    278.4    535.9   1388.7   396.48      0.0    252.5     25.9     25.8      0.0    138.7       51    237.0    237.2       89     0.000     0.000     0.000     0.000      107        0        0        0        8       19        6    16.949       78     40.7    6.904   -9.900     1.84    0.000    0.000       26        9     2013  Maize_short_Cahul_6June_Optimum_26_MOHC.PRM
  Tot(34)        6        6     2014    153.0    567.9   1422.4   398.55      0.0    152.8      0.2      0.0      0.0    140.1       49    227.5    228.7       79     0.000     0.000     0.000     0.000      107        0        0        0        6       23       20    14.324       63     39.8    5.704   -9.900     1.55    0.000    0.000       26        9     2014  Maize_short_Cahul_6June_Optimum_26_MOHC.PRM
  Tot(35)        6        6     2015    140.8    604.0   1480.5   401.00      0.0    138.4      2.4      0.1      0.0    131.6       39    216.4    216.3       78     0.000     0.000     0.000     0.000      107        0        0        0        3       29       19    13.045       55     40.3    5.259   -9.900     1.51    0.000    0.000       26        9     2015  Maize_short_Cahul_6June_Optimum_26_MOHC.PRM
  Tot(36)        6        6     2016    168.2    577.0   1458.2   403.00      0.0    155.6     12.6      0.1      0.0    129.7       38    195.0    195.2       81     0.000     0.000     0.000     0.000      107        0        0        0        7       28       16    11.995       54     40.3    4.834   -9.900     1.49    0.000    0.000       26        9     2016  Maize_short_Cahul_6June_Optimum_26_MOHC.PRM
  Tot(37)        6        6     2017    233.5    561.6   1453.7   405.00      0.0    202.3     31.2      8.2      0.0    137.4       53    277.3    276.9       88     0.000     0.000     0.000     0.000      107        0        0        0        4        6       13    18.327       79     39.7    7.273   -9.900     1.75    0.000    0.000       26        9     2017  Maize_short_Cahul_6June_Optimum_26_MOHC.PRM
  Tot(38)        6        6     2018    165.7    536.5   1498.9   408.00      0.0    161.3      4.4      0.0      0.0    114.1       46    258.3    258.7       87     0.000     0.000     0.000     0.000      107        0        0        0        4        5       13    17.983       77     39.8    7.154   -9.900     1.92    0.000    0.000       26        9     2018  Maize_short_Cahul_6June_Optimum_26_MOHC.PRM
  Tot(39)        6        6     2019    147.0    605.5   1482.4   410.00      0.0    144.2      2.8      0.6      0.0    138.0       39    196.3    196.3       78     0.000     0.000     0.000     0.000       98        0        0        0        1       22       19    12.126       53     34.8    4.223   -9.900     1.28    0.000    0.000       26        9     2019  Maize_short_Cahul_6June_Optimum_26_MOHC.PRM
  Tot(40)        6        6     2020    101.0    627.4   1534.9   412.00      0.0     99.6      1.4      0.0      0.0    105.7       24    158.9    158.8       79     0.000     0.000     0.000     0.000      107        0        0        0        6       38       14     8.245       36     40.6    3.347   -9.900     1.26    0.000    0.000       26        9     2020  Maize_short_Cahul_6June_Optimum_26_MOHC.PRM
  Tot(41)        6        6     2021     33.5    636.4   1532.6   414.00      0.0     33.5      0.0      0.0      0.0     70.7       16    160.3    160.4       81     0.000     0.000     0.000     0.000       95        0        0        0        1       37       16     8.566       37     31.4    2.686   -9.900     1.18    0.000    0.000       26        9     2021  Maize_short_Cahul_6June_Optimum_26_MOHC.PRM
  Tot(42)        6        6     2022     66.1    657.6   1666.4   417.00      0.0     66.1      0.0      0.0      0.0     97.8       22    166.9    166.9       76     0.000     0.000     0.000     0.000       90        0        0        0        1       34       19     8.614       35     27.0    2.329   -9.900     0.91    0.000    0.000       26        9     2022  Maize_short_Cahul_6June_Optimum_26_MOHC.PRM
  Tot(43)        6        6     2023     55.0    668.6   1589.1   419.00      0.0     55.0      0.0      0.0      0.0     76.4       16    163.1    163.0       78     0.000     0.000     0.000     0.000      107        0        0        0        3       37       15     8.659       36     39.8    3.448   -9.900     1.44    0.000    0.000       26        9     2023  Maize_short_Cahul_6June_Optimum_26_MOHC.PRM
  Tot(44)        6        6     2024    241.5    609.0   1567.3   421.00      0.0    206.1     35.4     23.1      0.0    146.5       42    192.0    191.8       76     0.000     0.000     0.000     0.000      107        0        0        0        3       26       17    10.852       46     40.1    4.353   -9.900     1.29    0.000    0.000       26        9     2024  Maize_short_Cahul_6June_Optimum_26_MOHC.PRM
  Tot(45)        6        6     2025     86.0    625.1   1512.6   423.00      0.0     84.7      1.3      0.0      0.0     80.4       17    182.7    182.1       93     0.000     0.000     0.000     0.000      107        0        0        0        6       39        3    11.963       53     40.9    4.893   -9.900     1.86    0.000    0.000       26        9     2025  Maize_short_Cahul_6June_Optimum_26_MOHC.PRM
  Tot(46)        6        6     2026     50.7    702.6   1597.1   424.00      0.0     50.7      0.0      0.0      0.0     83.8       17    157.0    157.7       75     0.000     0.000     0.000     0.000       87        0        0        0        0       36       18     7.489       34     24.0    1.801   -9.900     0.77    0.000    0.000       26        9     2026  Maize_short_Cahul_6June_Optimum_26_MOHC.PRM
  Tot(47)        6        6     2027     53.7    677.5   1576.2   426.00      0.0     53.7      0.0      0.0      0.0     87.7       18    154.3    154.3       78     0.000     0.000     0.000     0.000       90        0        0        0        0       38       17     7.470       32     26.3    1.964   -9.900     0.82    0.000    0.000       26        9     2027  Maize_short_Cahul_6June_Optimum_26_MOHC.PRM
  Tot(48)        6        6     2028    127.1    649.6   1557.1   428.00      0.0    120.1      7.0      0.0      0.0    100.2       21    171.1    169.9       88     0.000     0.000     0.000     0.000      107        0        0        0        5       40        7    10.446       46     40.8    4.265   -9.900     1.57    0.000    0.000       26        9     2028  Maize_short_Cahul_6June_Optimum_26_MOHC.PRM
  Tot(49)        6        6     2029     61.7    636.0   1600.4   429.00      0.0     58.1      3.6      6.2      0.0     84.7       21    163.8    165.0       74     0.000     0.000     0.000     0.000       88        0        0        0        1       33       20     8.397       35     22.5    1.885   -9.900     0.78    0.000    0.000       26        9     2029  Maize_short_Cahul_6June_Optimum_26_MOHC.PRM
  Tot(50)        6        6     2030    110.8    726.1   1731.6   431.00      0.0     94.3     16.5     19.1      0.0    106.7       20    155.3    155.3       76     0.000     0.000     0.000     0.000       84        0        0        0        0       39       19     6.730       27     21.1    1.420   -9.900     0.55    0.000    0.000       26        9     2030  Maize_short_Cahul_6June_Optimum_26_MOHC.PRM
  Tot(51)        6        6     2031     51.2    637.8   1599.0   432.00      0.0     51.2      0.0      0.0      0.0     86.3       21    164.6    164.6       76     0.000     0.000     0.000     0.000       90        0        0        0        0       33       18     8.899       36     27.4    2.440   -9.900     0.98    0.000    0.000       26        9     2031  Maize_short_Cahul_6June_Optimum_26_MOHC.PRM
  Tot(52)        6        6     2032     28.2    735.1   1693.5   433.00      0.0     28.2      0.0      0.0      0.0     68.3       12    153.1    153.1       82     0.000     0.000     0.000     0.000      100        0        0        0        1       41       15     7.483       31     36.6    2.735   -9.900     1.24    0.000    0.000       26        9     2032  Maize_short_Cahul_6June_Optimum_26_MOHC.PRM
  Tot(53)        6        6     2033     49.9    702.5   1629.9   435.00      0.0     49.7      0.2      0.0      0.0     85.7       17    156.9    156.9       79     0.000     0.000     0.000     0.000       91        0        0        0        1       38       17     7.454       31     27.3    2.033   -9.900     0.84    0.000    0.000       26        9     2033  Maize_short_Cahul_6June_Optimum_26_MOHC.PRM
  Tot(54)        6        6     2034    147.5    605.6   1521.3   436.00      0.0    123.0     24.5      0.0      0.0    107.6       29    178.3    178.1       75     0.000     0.000     0.000     0.000      107        0        0        0        7       29       15    10.278       46     40.2    4.135   -9.900     1.45    0.000    0.000       26        9     2034  Maize_short_Cahul_6June_Optimum_26_MOHC.PRM
  Tot(55)        6        6     2035     75.1    638.2   1586.7   437.00      0.0     74.4      0.7      0.0      0.0    101.1       24    166.6    166.8       76     0.000     0.000     0.000     0.000       88        0        0        0        1       33       19     8.668       36     25.0    2.171   -9.900     0.84    0.000    0.000       26        9     2035  Maize_short_Cahul_6June_Optimum_26_MOHC.PRM
  Tot(56)        6        6     2036     88.4    646.4   1576.2   438.00      0.0     88.3      0.1      0.0      0.0    110.0       25    165.3    165.3       77     0.000     0.000     0.000     0.000       95        0        0        0        5       36       17     8.613       37     32.4    2.787   -9.900     1.05    0.000    0.000       26        9     2036  Maize_short_Cahul_6June_Optimum_26_MOHC.PRM
  Tot(57)        6        6     2037     23.2    680.7   1638.3   438.00      0.0     23.2      0.0      0.0      0.0     62.6       13    151.8    151.8       78     0.000     0.000     0.000     0.000       89        0        0        0        2       38       17     7.329       30     26.2    1.924   -9.900     0.90    0.000    0.000       26        9     2037  Maize_short_Cahul_6June_Optimum_26_MOHC.PRM
  Tot(58)        6        6     2038     66.3    586.5   1464.9   439.00      0.0     63.9      2.4      2.7      0.0     90.8       26    167.6    167.6       76     0.000     0.000     0.000     0.000       90        0        0        0        2       32       19     9.254       39     27.1    2.507   -9.900     0.98    0.000    0.000       26        9     2038  Maize_short_Cahul_6June_Optimum_26_MOHC.PRM
  Tot(59)        6        6     2039     81.3    686.7   1621.9   440.00      0.0     76.7      4.6      0.0      0.0     85.5       16    151.7    151.7       81     0.000     0.000     0.000     0.000       94        0        0        0        1       40       16     7.402       31     30.4    2.250   -9.900     1.06    0.000    0.000       26        9     2039  Maize_short_Cahul_6June_Optimum_26_MOHC.PRM
  Tot(60)        6        6     2040     62.3    670.5   1588.3   440.00      0.0     62.0      0.3      0.0      0.0     80.6       19    194.8    194.6       77     0.000     0.000     0.000     0.000      107        0        0        0        1       33       20    11.026       45     40.3    4.442   -9.900     1.61    0.000    0.000       26        9     2040  Maize_short_Cahul_6June_Optimum_26_MOHC.PRM
  Tot(61)        6        6     2041     65.9    704.3   1604.7   441.00      0.0     65.6      0.3      0.0      0.0     90.7       18    154.6    154.7       76     0.000     0.000     0.000     0.000       88        0        0        0        1       38       18     7.422       31     24.1    1.790   -9.900     0.77    0.000    0.000       26        9     2041  Maize_short_Cahul_6June_Optimum_26_MOHC.PRM
  Tot(62)        6        6     2042     53.2    599.0   1533.7   441.00      0.0     53.2      0.0      0.0      0.0     89.8       24    166.5    166.5       78     0.000     0.000     0.000     0.000       92        0        0        0        1       32       18     9.745       40     29.1    2.839   -9.900     1.11    0.000    0.000       26        9     2042  Maize_short_Cahul_6June_Optimum_26_MOHC.PRM
  Tot(63)        6        6     2043    111.3    676.6   1589.4   441.00      0.0    100.1     11.2      0.2      0.0     73.2       15    149.9    149.9       78     0.000     0.000     0.000     0.000       89        0        0        0        1       39       17     7.073       31     26.2    1.855   -9.900     0.90    0.000    0.000       26        9     2043  Maize_short_Cahul_6June_Optimum_26_MOHC.PRM
  Tot(64)        6        6     2044    150.2    588.1   1505.2   442.00      0.0    146.4      3.8      5.1      0.0    156.7       44    177.6    177.6       76     0.000     0.000     0.000     0.000      107        0        0        0        6       28       18    10.518       46     40.3    4.238   -9.900     1.27    0.000    0.000       26        9     2044  Maize_short_Cahul_6June_Optimum_26_MOHC.PRM
  Tot(65)        6        6     2045    120.2    637.3   1462.8   442.00      0.0    111.0      9.2      1.8      0.0    100.0       22    153.2    153.3       78     0.000     0.000     0.000     0.000       97        0        0        0        3       38       16     7.527       34     29.4    2.213   -9.900     0.94    0.000    0.000       26        9     2045  Maize_short_Cahul_6June_Optimum_26_MOHC.PRM
  Tot(66)        6        6     2046     25.4    766.9   1756.7   442.00      0.0     25.4      0.0      0.0      0.0     68.0       11    151.3    151.3       82     0.000     0.000     0.000     0.000       95        0        0        0        0       42       15     7.112       30     32.4    2.307   -9.900     1.06    0.000    0.000       26        9     2046  Maize_short_Cahul_6June_Optimum_26_MOHC.PRM
  Tot(67)        6        6     2047     15.3    664.6   1722.3   442.00      0.0     15.3      0.0      0.0      0.0     56.4       12    154.7    154.7       78     0.000     0.000     0.000     0.000       92        0        0        0        1       37       17     7.936       32     29.3    2.323   -9.900     1.11    0.000    0.000       26        9     2047  Maize_short_Cahul_6June_Optimum_26_MOHC.PRM
  Tot(68)        6        6     2048    271.9    601.5   1499.6   442.00      0.0    185.4     86.5     57.1      0.0    120.8       37    202.7    202.7       75     0.000     0.000     0.000     0.000      107        0        0        0        8       24       20    12.296       54     39.9    4.905   -9.900     1.52    0.000    0.000       26        9     2048  Maize_short_Cahul_6June_Optimum_26_MOHC.PRM
  Tot(69)        6        6     2049     51.7    630.2   1608.0   443.00      0.0     51.7      0.0      0.0      0.0     87.6       21    169.3    169.4       80     0.000     0.000     0.000     0.000       96        0        0        0        1       33       17     9.996       42     33.3    3.325   -9.900     1.31    0.000    0.000       26        9     2049  Maize_short_Cahul_6June_Optimum_26_MOHC.PRM
  Tot(70)        6        6     2050     81.4    642.5   1624.4   443.00      0.0     80.8      0.6      0.0      0.0     86.7       20    187.6    187.2       81     0.000     0.000     0.000     0.000      107        0        0        0        3       36       12    11.350       48     40.7    4.615   -9.900     1.68    0.000    0.000       26        9     2050  Maize_short_Cahul_6June_Optimum_26_MOHC.PRM
  Tot(71)        6        6     2051     53.0    671.5   1582.4   443.00      0.0     48.4      4.6     11.2      0.0     71.8       16    161.4    161.8       76     0.000     0.000     0.000     0.000       89        0        0        0        2       35       18     8.181       34     26.1    2.134   -9.900     0.93    0.000    0.000       26        9     2051  Maize_short_Cahul_6June_Optimum_26_MOHC.PRM
  Tot(72)        6        6     2052     92.9    627.4   1632.9   443.00      0.0     91.6      1.3      0.8      0.0    119.3       29    172.7    172.7       78     0.000     0.000     0.000     0.000       91        0        0        0        1       33       18     9.203       38     28.5    2.619   -9.900     0.92    0.000    0.000       26        9     2052  Maize_short_Cahul_6June_Optimum_26_MOHC.PRM
  Tot(73)        6        6     2053     82.5    663.5   1600.0   443.00      0.0     82.2      0.3      0.0      0.0    117.2       25    159.7    159.7       77     0.000     0.000     0.000     0.000       90        0        0        0        0       36       18     8.190       35     27.2    2.230   -9.900     0.83    0.000    0.000       26        9     2053  Maize_short_Cahul_6June_Optimum_26_MOHC.PRM
  Tot(74)        6        6     2054    176.9    618.7   1547.2   443.00      0.0    161.9     15.0     14.0      0.0    130.9       37    209.0    208.2       80     0.000     0.000     0.000     0.000      107        0        0        0        3       28       14    12.481       52     40.4    5.045   -9.900     1.48    0.000    0.000       26        9     2054  Maize_short_Cahul_6June_Optimum_26_MOHC.PRM
  Tot(75)        6        6     2055     78.9    689.9   1656.3   443.00      0.0     76.7      2.2      0.0      0.0     79.6       17    196.0    196.2       82     0.000     0.000     0.000     0.000      107        0        0        0        2       34       13    11.644       48     40.6    4.731   -9.900     1.72    0.000    0.000       26        9     2055  Maize_short_Cahul_6June_Optimum_26_MOHC.PRM
  Tot(76)        6        6     2056    122.7    686.1   1628.3   442.00      0.0    117.6      5.1      0.0      0.0    123.5       26    159.2    159.7       74     0.000     0.000     0.000     0.000       87        0        0        0        1       36       19     7.734       32     24.0    1.858   -9.900     0.71    0.000    0.000       26        9     2056  Maize_short_Cahul_6June_Optimum_26_MOHC.PRM
  Tot(77)        6        6     2057    104.3    657.3   1637.1   442.00      0.0     99.9      4.4      5.3      0.0    123.0       29    168.9    168.9       75     0.000     0.000     0.000     0.000       87        0        0        0        0       33       20     8.655       37     24.0    2.074   -9.900     0.72    0.000    0.000       26        9     2057  Maize_short_Cahul_6June_Optimum_26_MOHC.PRM
  Tot(78)        6        6     2058     67.6    668.4   1633.9   442.00      0.0     66.4      1.2      0.0      0.0     96.3       21    169.0    169.0       78     0.000     0.000     0.000     0.000       93        0        0        0        2       33       18     9.190       39     30.1    2.770   -9.900     1.10    0.000    0.000       26        9     2058  Maize_short_Cahul_6June_Optimum_26_MOHC.PRM
  Tot(79)        6        6     2059     52.9    678.2   1647.9   442.00      0.0     52.8      0.1      0.0      0.0     78.0       17    174.1    174.1       75     0.000     0.000     0.000     0.000      107        0        0        0        0       32       31     9.161       38     28.3    2.592   -9.900     1.03    0.000    0.000       26        9     2059  Maize_short_Cahul_6June_Optimum_26_MOHC.PRM
  Tot(80)        6        6     2060     53.8    630.1   1573.2   442.00      0.0     53.6      0.2      0.0      0.0     85.5       21    162.0    162.0       76     0.000     0.000     0.000     0.000       91        0        0        0        1       34       19     8.721       36     28.1    2.452   -9.900     1.03    0.000    0.000       26        9     2060  Maize_short_Cahul_6June_Optimum_26_MOHC.PRM
  Tot(81)        6        6     2061    124.7    637.7   1584.1   441.00      0.0    105.1     19.6      0.0      0.0     80.9       18    156.9    156.9       80     0.000     0.000     0.000     0.000       94        0        0        0        0       38       17     8.201       37     31.4    2.572   -9.900     1.12    0.000    0.000       26        9     2061  Maize_short_Cahul_6June_Optimum_26_MOHC.PRM
  Tot(82)        6        6     2062    125.8    648.4   1580.6   441.00      0.0    119.2      6.6      0.0      0.0    103.3       24    185.3    185.3       80     0.000     0.000     0.000     0.000      107        0        0        0        6       32       15    10.665       46     40.4    4.310   -9.900     1.49    0.000    0.000       26        9     2062  Maize_short_Cahul_6June_Optimum_26_MOHC.PRM
  Tot(83)        6        6     2063     83.1    636.5   1581.7   441.00      0.0     83.0      0.1      0.0      0.0     85.7       20    180.7    179.6       79     0.000     0.000     0.000     0.000      107        0        0        0        4       37       14    10.058       42     18.2    1.828   -9.900     0.69    0.000    0.000       26        9     2063  Maize_short_Cahul_6June_Optimum_26_MOHC.PRM
  Tot(84)        6        6     2064     79.1    650.3   1600.3   440.00      0.0     77.7      1.4      0.5      0.0     95.5       21    159.2    160.4       78     0.000     0.000     0.000     0.000       92        0        0        0        1       37       17     8.036       34     29.3    2.354   -9.900     0.97    0.000    0.000       26        9     2064  Maize_short_Cahul_6June_Optimum_26_MOHC.PRM
  Tot(85)        6        6     2065     52.5    722.6   1630.9   440.00      0.0     52.5      0.0      0.0      0.0     77.1       13    160.6    160.5       85     0.000     0.000     0.000     0.000      107        0        0        0        4       41       11     8.594       37     40.7    3.500   -9.900     1.47    0.000    0.000       26        9     2065  Maize_short_Cahul_6June_Optimum_26_MOHC.PRM
  Tot(86)        6        6     2066    234.5    588.7   1470.2   440.00      0.0    164.0     70.5      0.0      0.0    107.2       28    201.0    200.5       90     0.000     0.000     0.000     0.000      107        0        0        0        8       35        5    13.628       61     38.1    5.190   -9.900     1.68    0.000    0.000       26        9     2066  Maize_short_Cahul_6June_Optimum_26_MOHC.PRM
  Tot(87)        6        6     2067    106.3    648.8   1584.8   439.00      0.0    105.5      0.8      0.0      0.0     69.3       17    230.9    231.0       85     0.000     0.000     0.000     0.000      107        0        0        0        2       24       13    13.785       57     40.0    5.516   -9.900     1.84    0.000    0.000       26        9     2067  Maize_short_Cahul_6June_Optimum_26_MOHC.PRM
  Tot(88)        6        6     2068    166.5    545.2   1481.0   439.00      0.0    162.1      4.4      3.7      0.0    136.4       47    228.7    228.4       86     0.000     0.000     0.000     0.000      107        0        0        0        3       27       11    16.177       68     40.7    6.586   -9.900     1.80    0.000    0.000       26        9     2068  Maize_short_Cahul_6June_Optimum_26_MOHC.PRM
  Tot(89)        6        6     2069     69.6    620.8   1596.1   438.00      0.0     68.5      1.1      0.0      0.0     97.5       25    176.9    177.7       77     0.000     0.000     0.000     0.000       93        0        0        0        0       30       19    10.232       42     30.0    3.072   -9.900     1.13    0.000    0.000       26        9     2069  Maize_short_Cahul_6June_Optimum_26_MOHC.PRM
  Tot(90)        6        6     2070     19.6    611.2   1540.0   437.00      0.0     19.6      0.0      0.0      0.0     59.2       14    158.4    158.4       82     0.000     0.000     0.000     0.000       96        0        0        0        2       37       16     8.798       38     33.4    2.943   -9.900     1.37    0.000    0.000       26        9     2070  Maize_short_Cahul_6June_Optimum_26_MOHC.PRM
  Tot(91)        6        6     2071    217.7    553.1   1471.7   437.00      0.0    184.5     33.2     19.0      0.0    104.5       34    239.7    237.9       92     0.000     0.000     0.000     0.000      107        0        0        0        5       28        4    17.183       74     40.9    7.021   -9.900     2.04    0.000    0.000       26        9     2071  Maize_short_Cahul_6June_Optimum_26_MOHC.PRM
  Tot(92)        6        6     2072     39.3    617.8   1536.4   436.00      0.0     39.3      0.0      0.0      0.0     72.0       19    177.2    179.1       77     0.000     0.000     0.000     0.000       95        0        0        0        1       28       19    10.700       45     32.0    3.425   -9.900     1.38    0.000    0.000       26        9     2072  Maize_short_Cahul_6June_Optimum_26_MOHC.PRM
  Tot(93)        6        6     2073     22.0    684.6   1638.2   436.00      0.0     22.0      0.0      0.0      0.0     63.1       13    158.7    158.7       79     0.000     0.000     0.000     0.000       94        0        0        0        1       36       17     8.365       34     30.3    2.532   -9.900     1.15    0.000    0.000       26        9     2073  Maize_short_Cahul_6June_Optimum_26_MOHC.PRM
  Tot(94)        6        6     2074     67.1    624.1   1540.6   435.00      0.0     66.9      0.2      0.4      0.0     95.2       23    172.6    172.6       79     0.000     0.000     0.000     0.000       92        0        0        0        1       33       18     9.540       39     29.2    2.787   -9.900     1.05    0.000    0.000       26        9     2074  Maize_short_Cahul_6June_Optimum_26_MOHC.PRM
  Tot(95)        6        6     2075     88.4    575.7   1455.2   435.00      0.0     86.7      1.7      0.0      0.0     89.9       25    164.8    164.8       78     0.000     0.000     0.000     0.000       96        0        0        0        3       34       17     9.096       40     32.4    2.944   -9.900     1.19    0.000    0.000       26        9     2075  Maize_short_Cahul_6June_Optimum_26_MOHC.PRM
  Tot(96)        6        6     2076     47.7    704.4   1651.0   434.00      0.0     44.0      3.7     11.8      0.0     72.5       14    147.1    147.1       78     0.000     0.000     0.000     0.000       90        0        0        0        0       40       17     6.632       29     26.3    1.745   -9.900     0.80    0.000    0.000       26        9     2076  Maize_short_Cahul_6June_Optimum_26_MOHC.PRM
  Tot(97)        6        6     2077     45.6    684.3   1511.5   433.00      0.0     45.6      0.0      0.0      0.0     74.8       15    154.1    154.1       79     0.000     0.000     0.000     0.000       93        0        0        0        1       39       17     7.547       33     29.3    2.212   -9.900     0.99    0.000    0.000       26        9     2077  Maize_short_Cahul_6June_Optimum_26_MOHC.PRM
  Tot(98)        6        6     2078    123.8    607.8   1580.4   433.00      0.0    122.3      1.5      0.3      0.0    129.1       35    174.7    174.7       75     0.000     0.000     0.000     0.000       90        0        0        0        0       29       19     9.945       43     27.3    2.713   -9.900     0.91    0.000    0.000       26        9     2078  Maize_short_Cahul_6June_Optimum_26_MOHC.PRM
  Tot(99)        6        6     2079     92.3    633.4   1582.4   432.00      0.0     90.3      2.0      0.0      0.0     93.3       23    199.2    198.5       81     0.000     0.000     0.000     0.000      107        0        0        0        3       36       15    11.514       49     40.6    4.675   -9.900     1.60    0.000    0.000       26        9     2079  Maize_short_Cahul_6June_Optimum_26_MOHC.PRM
 Tot(100)        6        6     2080    114.7    655.6   1585.7   432.00      0.0    106.9      7.8      0.0      0.0     94.4       19    151.4    152.1       80     0.000     0.000     0.000     0.000      107        0        0        0        3       39       14     7.308       31     27.4    2.004   -9.900     0.82    0.000    0.000       26        9     2080  Maize_short_Cahul_6June_Optimum_26_MOHC.PRM
 Tot(101)        6        6     2081     61.9    698.4   1680.7   431.00      0.0     61.9      0.0      0.0      0.0     97.4       19    162.1    162.2       81     0.000     0.000     0.000     0.000       98        0        0        0        1       40       16     8.286       35     34.5    2.858   -9.900     1.13    0.000    0.000       26        9     2081  Maize_short_Cahul_6June_Optimum_26_MOHC.PRM
 Tot(102)        6        6     2082     37.7    719.5   1694.9   431.00      0.0     37.7      0.0      0.0      0.0     74.8       13    151.8    151.8       80     0.000     0.000     0.000     0.000       93        0        0        0        0       40       16     7.191       29     30.4    2.184   -9.900     1.01    0.000    0.000       26        9     2082  Maize_short_Cahul_6June_Optimum_26_MOHC.PRM
 Tot(103)        6        6     2083     91.8    660.7   1661.4   430.00      0.0     91.3      0.5      0.0      0.0     94.8       20    197.5    196.7       87     0.000     0.000     0.000     0.000      107        0        0        0        1       39       10    12.006       49     40.8    4.901   -9.900     1.68    0.000    0.000       26        9     2083  Maize_short_Cahul_6June_Optimum_26_MOHC.PRM
 Tot(104)        6        6     2084     91.7    688.4   1660.1   429.00      0.0     89.7      2.0      1.5      0.0    116.6       25    161.1    161.9       74     0.000     0.000     0.000     0.000       87        0        0        0        0       36       19     7.537       32     24.1    1.813   -9.900     0.66    0.000    0.000       26        9     2084  Maize_short_Cahul_6June_Optimum_26_MOHC.PRM
 Tot(105)        6        6     2085    185.6    584.9   1627.0   429.00      0.0    155.5     30.1      0.0      0.0     98.3       25    167.0    166.9       81     0.000     0.000     0.000     0.000      107        0        0        0        1       34       14     9.793       40     40.6    3.974   -9.900     1.50    0.000    0.000       26        9     2085  Maize_short_Cahul_6June_Optimum_26_MOHC.PRM
 Tot(106)        6        6     2086     66.7    596.5   1497.1   428.00      0.0     66.4      0.3      0.0      0.0     98.0       25    163.4    163.5       78     0.000     0.000     0.000     0.000       91        0        0        0        1       34       18     8.790       37     27.2    2.393   -9.900     0.93    0.000    0.000       26        9     2086  Maize_short_Cahul_6June_Optimum_26_MOHC.PRM
 Tot(107)        6        6     2087     94.6    673.4   1662.7   428.00      0.0     94.3      0.3      0.0      0.0     88.4       19    191.0    190.8       84     0.000     0.000     0.000     0.000      107        0        0        0        4       38       10    11.475       49     40.7    4.676   -9.900     1.67    0.000    0.000       26        9     2087  Maize_short_Cahul_6June_Optimum_26_MOHC.PRM
 Tot(108)        6        6     2088    167.2    602.4   1502.5   427.00      0.0    146.3     20.9      0.0      0.0     85.2       22    182.0    181.7       81     0.000     0.000     0.000     0.000      107        0        0        0        7       36       12    10.838       48     35.6    3.855   -9.900     1.44    0.000    0.000       26        9     2088  Maize_short_Cahul_6June_Optimum_26_MOHC.PRM
 Tot(109)        6        6     2089    163.8    579.9   1554.4   427.00      0.0    144.9     18.9      0.0      0.0     98.3       30    214.4    214.6       81     0.000     0.000     0.000     0.000      107        0        0        0        4       26       16    13.741       59     40.3    5.533   -9.900     1.77    0.000    0.000       26        9     2089  Maize_short_Cahul_6June_Optimum_26_MOHC.PRM
 Tot(110)        6        6     2090     67.1    668.5   1630.1   426.00      0.0     67.1      0.0      0.0      0.0     92.8       20    163.3    163.7       76     0.000     0.000     0.000     0.000       90        0        0        0        0       33       18     8.751       37     27.0    2.366   -9.900     0.96    0.000    0.000       26        9     2090  Maize_short_Cahul_6June_Optimum_26_MOHC.PRM
 Tot(111)        6        6     2091    110.8    584.6   1525.5   425.00      0.0    110.1      0.7      0.0      0.0     99.6       31    220.9    220.7       81     0.000     0.000     0.000     0.000      107        0        0        0        5       23       16    14.317       62     40.3    5.771   -9.900     1.80    0.000    0.000       26        9     2091  Maize_short_Cahul_6June_Optimum_26_MOHC.PRM
 Tot(112)        6        6     2092     89.2    598.3   1532.3   425.00      0.0     89.2      0.0      0.0      0.0    109.7       32    178.7    178.8       74     0.000     0.000     0.000     0.000       90        0        0        0        2       28       20     9.803       43     26.8    2.632   -9.900     0.96    0.000    0.000       26        9     2092  Maize_short_Cahul_6June_Optimum_26_MOHC.PRM
 Tot(113)        6        6     2093     54.3    629.6   1585.8   424.00      0.0     51.7      2.6      4.5      0.0     81.3       19    157.1    157.1       78     0.000     0.000     0.000     0.000       90        0        0        0        1       36       17     7.986       33     27.2    2.175   -9.900     0.92    0.000    0.000       26        9     2093  Maize_short_Cahul_6June_Optimum_26_MOHC.PRM
 Tot(114)        6        6     2094    179.6    571.9   1467.3   424.00      0.0    124.8     54.8      0.0      0.0     98.9       27    175.2    175.0       80     0.000     0.000     0.000     0.000      107        0        0        0        8       32       12    10.999       49     40.5    4.457   -9.900     1.63    0.000    0.000       26        9     2094  Maize_short_Cahul_6June_Optimum_26_MOHC.PRM
 Tot(115)        6        6     2095    249.4    576.4   1479.9   423.00      0.0    208.7     40.7      5.2      0.0    137.0       40    173.2    173.4       75     0.000     0.000     0.000     0.000       87        0        0        0        1       31       20     8.865       40     24.0    2.124   -9.900     0.74    0.000    0.000       26        9     2095  Maize_short_Cahul_6June_Optimum_26_MOHC.PRM
 Tot(116)        6        6     2096     66.0    700.9   1731.9   423.00      0.0     66.0      0.0      0.0      0.0     99.9       19    164.3    164.3       83     0.000     0.000     0.000     0.000      102        0        0        0        0       37       15     8.891       36     38.5    3.427   -9.900     1.31    0.000    0.000       26        9     2096  Maize_short_Cahul_6June_Optimum_26_MOHC.PRM
 Tot(117)        6        6     2097    134.1    616.6   1577.5   422.00      0.0     98.3     35.8      1.9      0.0     74.9       18    157.4    157.4       74     0.000     0.000     0.000     0.000       88        0        0        0        1       35       19     7.854       34     25.1    1.968   -9.900     0.87    0.000    0.000       26        9     2097  Maize_short_Cahul_6June_Optimum_26_MOHC.PRM
 Tot(118)        6        6     2098     36.0    639.3   1487.6   422.00      0.0     35.6      0.4      0.0      0.0     51.0       13    200.4    200.4       78     0.000     0.000     0.000     0.000       98        0        0        0        1       24       19    11.321       49     34.9    3.945   -9.900     1.58    0.000    0.000       26        9     2098  Maize_short_Cahul_6June_Optimum_26_MOHC.PRM
 Tot(119)        6        6     2099     24.2    771.5   1719.7   421.00      0.0     24.2      0.0      0.0      0.0     66.0       11    149.4    149.4       81     0.000     0.000     0.000     0.000       94        0        0        0        0       42       16     6.604       28     23.0    1.517   -9.900     0.71    0.000    0.000       26        9     2099  Maize_short_Cahul_6June_Optimum_26_MOHC.PRM
