AquaCrop 7.0 (August 2022) - Output created on (date) : 23-11-2022   at (time) : 13:23:35

    RunNr     Day1   Month1    Year1     Rain      ETo       GD     CO2      Irri   Infilt   Runoff    Drain   Upflow        E     E/Ex       Tr      TrW   Tr/Trx    SaltIn   SaltOut    SaltUp  SaltProf     Cycle   SaltStr  FertStr  WeedStr  TempStr   ExpStr   StoStr  BioMass  Brelative   HI    Y(dry)  Y(fresh)    WPet      Bin     Bout     DayN   MonthN    YearN
                                           mm       mm  degC.day    ppm        mm       mm       mm       mm       mm       mm        %       mm       mm        %    ton/ha    ton/ha    ton/ha    ton/ha      days       %        %        %        %        %        %    ton/ha        %       %    ton/ha   ton/ha    kg/m3   ton/ha   ton/ha
   Tot(1)        6        6     1981    199.9    451.3   1202.5   340.11      0.0    168.9     31.0      0.0      0.0     98.0       45    218.0    216.7       95     0.000     0.000     0.000     0.000      107        0        0        0       17       16        2    16.753       89     40.8    6.841   -9.900     2.16    0.000    0.000       26        9     1981  Maize_short_Chisinau_6June_Optimum_26_MOHC.PRM
   Tot(2)        6        6     1982    192.1    427.5   1217.6   341.22      0.0    191.6      0.5      0.0      0.0    140.8       75    245.0    245.9       99     0.000     0.000     0.000     0.000      107        0        0        0       10        1        1    20.939       96     40.1    8.397   -9.900     2.18    0.000    0.000       26        9     1982  Maize_short_Chisinau_6June_Optimum_26_MOHC.PRM
   Tot(3)        6        6     1983    262.8    443.0   1188.8   342.84      0.0    240.7     22.1     39.3      0.0    123.0       64    240.7    240.9      100     0.000     0.000     0.000     0.000      107        0        0        0       12        2        0    19.837       97     40.0    7.937   -9.900     2.18    0.000    0.000       26        9     1983  Maize_short_Chisinau_6June_Optimum_26_MOHC.PRM
   Tot(4)        6        6     1984    184.6    423.3   1101.0   344.40      0.0    181.4      3.2      7.2      0.0    136.9       71    220.8    219.5       99     0.000     0.000     0.000     0.000      107        0        0        0       16        6        1    19.436       95     40.3    7.833   -9.900     2.19    0.000    0.000       26        9     1984  Maize_short_Chisinau_6June_Optimum_26_MOHC.PRM
   Tot(5)        6        6     1985    281.0    437.5   1120.2   345.87      0.0    247.3     33.7     63.0      0.0    137.1       76    236.2    237.8       97     0.000     0.000     0.000     0.000      107        0        0        0       20        4        2    17.913       94     40.2    7.201   -9.900     1.93    0.000    0.000       26        9     1985  Maize_short_Chisinau_6June_Optimum_26_MOHC.PRM
   Tot(6)        6        6     1986    165.0    499.0   1263.3   347.19      0.0    162.3      2.7      5.9      0.0    118.1       52    247.8    247.9       93     0.000     0.000     0.000     0.000      107        0        0        0       13        7        8    17.670       87     40.2    7.106   -9.900     1.94    0.000    0.000       26        9     1986  Maize_short_Chisinau_6June_Optimum_26_MOHC.PRM
   Tot(7)        6        6     1987    220.8    477.8   1198.4   348.98      0.0    212.1      8.7     13.2      0.0    114.5       50    234.2    232.2      100     0.000     0.000     0.000     0.000      107        0        0        0       15        5        0    18.307       96     40.2    7.355   -9.900     2.11    0.000    0.000       26        9     1987  Maize_short_Chisinau_6June_Optimum_26_MOHC.PRM
   Tot(8)        6        6     1988    230.8    451.7   1243.1   351.45      0.0    200.8     30.0      1.9      0.0    101.3       48    241.5    242.3       99     0.000     0.000     0.000     0.000      107        0        0        0       14        9        0    18.896       94     40.5    7.652   -9.900     2.23    0.000    0.000       26        9     1988  Maize_short_Chisinau_6June_Optimum_26_MOHC.PRM
   Tot(9)        6        6     1989    317.2    425.1   1179.8   352.89      0.0    284.4     32.8     13.0      0.0    118.7       59    221.5    221.3      100     0.000     0.000     0.000     0.000      107        0        0        0       14        2        0    19.137       97     40.1    7.667   -9.900     2.25    0.000    0.000       26        9     1989  Maize_short_Chisinau_6June_Optimum_26_MOHC.PRM
  Tot(10)        6        6     1990    132.3    476.7   1149.2   354.16      0.0    130.1      2.2      3.3      0.0    118.7       50    204.5    205.5       91     0.000     0.000     0.000     0.000      107        0        0        0       17       14       10    14.985       80     40.5    6.063   -9.900     1.88    0.000    0.000       26        9     1990  Maize_short_Chisinau_6June_Optimum_26_MOHC.PRM
  Tot(11)        6        6     1991    275.4    418.6   1253.8   355.48      0.0    261.5     13.9     18.7      0.0    129.6       66    218.7    217.2      100     0.000     0.000     0.000     0.000      107        0        0        0       11        1        0    19.676       97     40.0    7.874   -9.900     2.26    0.000    0.000       26        9     1991  Maize_short_Chisinau_6June_Optimum_26_MOHC.PRM
  Tot(12)        6        6     1992    150.7    509.8   1276.3   356.27      0.0    145.6      5.1     13.2      0.0    120.0       50    218.1    220.0       83     0.000     0.000     0.000     0.000      107        0        0        0       13       19       15    14.195       70     40.5    5.749   -9.900     1.70    0.000    0.000       26        9     1992  Maize_short_Chisinau_6June_Optimum_26_MOHC.PRM
  Tot(13)        6        6     1993    182.1    473.1   1085.2   356.95      0.0    180.2      1.9      0.0      0.0    113.6       50    223.8    222.4       97     0.000     0.000     0.000     0.000      107        0        0        0       21       12        1    16.839       91     40.6    6.833   -9.900     2.03    0.000    0.000       26        9     1993  Maize_short_Chisinau_6June_Optimum_26_MOHC.PRM
  Tot(14)        6        6     1994    231.2    503.3   1362.6   358.63      0.0    182.4     48.8     16.1      0.0     83.3       33    262.5    262.3       97     0.000     0.000     0.000     0.000      107        0        0        0        4       21        2    19.799       86     40.9    8.101   -9.900     2.34    0.000    0.000       26        9     1994  Maize_short_Chisinau_6June_Optimum_26_MOHC.PRM
  Tot(15)        6        6     1995    234.6    464.0   1267.5   360.62      0.0    221.2     13.4      0.0      0.0    105.9       47    237.4    238.7      100     0.000     0.000     0.000     0.000      107        0        0        0       12        6        0    19.159       95     40.3    7.720   -9.900     2.25    0.000    0.000       26        9     1995  Maize_short_Chisinau_6June_Optimum_26_MOHC.PRM
  Tot(16)        6        6     1996    265.4    465.3   1136.8   362.37      0.0    227.9     37.5      0.0      0.0     93.6       35    193.4    193.4       99     0.000     0.000     0.000     0.000      107        0        0        0       23       17        0    15.741       90     40.7    6.410   -9.900     2.23    0.000    0.000       26        9     1996  Maize_short_Chisinau_6June_Optimum_26_MOHC.PRM
  Tot(17)        6        6     1997    315.0    407.4   1143.8   363.47      0.0    294.3     20.7      7.2      0.0    131.8       67    192.3    192.5      100     0.000     0.000     0.000     0.000      107        0        0        0       17        1        0    18.210       97     40.0    7.285   -9.900     2.25    0.000    0.000       26        9     1997  Maize_short_Chisinau_6June_Optimum_26_MOHC.PRM
  Tot(18)        6        6     1998    223.6    463.9   1226.6   366.50      0.0    217.1      6.5      0.0      0.0    129.6       63    237.8    236.7       97     0.000     0.000     0.000     0.000      107        0        0        0       16        9        2    17.817       91     40.6    7.225   -9.900     1.97    0.000    0.000       26        9     1998  Maize_short_Chisinau_6June_Optimum_26_MOHC.PRM
  Tot(19)        6        6     1999    153.2    491.5   1394.7   368.14      0.0    151.2      2.0      1.9      0.0    114.9       46    237.4    237.1       95     0.000     0.000     0.000     0.000      107        0        0        0        7       15        5    18.736       87     40.5    7.587   -9.900     2.15    0.000    0.000       26        9     1999  Maize_short_Chisinau_6June_Optimum_26_MOHC.PRM
  Tot(20)        6        6     2000    210.5    500.1   1200.6   369.41      0.0    203.8      6.7      0.0      0.0     93.1       37    248.7    250.0       99     0.000     0.000     0.000     0.000      107        0        0        0       18        7        0    18.453       94     40.3    7.441   -9.900     2.18    0.000    0.000       26        9     2000  Maize_short_Chisinau_6June_Optimum_26_MOHC.PRM
  Tot(21)        6        6     2001    206.9    490.4   1341.7   371.07      0.0    193.1     13.8      1.1      0.0    112.9       49    231.8    231.9       89     0.000     0.000     0.000     0.000      107        0        0        0        9       17        7    16.781       77     40.7    6.825   -9.900     1.98    0.000    0.000       26        9     2001  Maize_short_Chisinau_6June_Optimum_26_MOHC.PRM
  Tot(22)        6        6     2002    290.9    484.3   1361.3   373.16      0.0    261.3     29.6     17.0      0.0     92.9       37    246.0    245.3      100     0.000     0.000     0.000     0.000      107        0        0        0        8        4        0    20.259       94     40.0    8.104   -9.900     2.39    0.000    0.000       26        9     2002  Maize_short_Chisinau_6June_Optimum_26_MOHC.PRM
  Tot(23)        6        6     2003    217.4    513.0   1265.0   375.80      0.0    213.7      3.7      0.0      0.0    117.9       48    262.4    263.0      100     0.000     0.000     0.000     0.000      107        0        0        0       13        3        0    19.668       96     40.1    7.890   -9.900     2.07    0.000    0.000       26        9     2003  Maize_short_Chisinau_6June_Optimum_26_MOHC.PRM
  Tot(24)        6        6     2004    185.9    481.7   1215.0   377.49      0.0    178.0      7.9     18.8      0.0     87.9       36    237.4    236.7      100     0.000     0.000     0.000     0.000      107        0        0        0       12        5        0    19.468       95     40.2    7.826   -9.900     2.41    0.000    0.000       26        9     2004  Maize_short_Chisinau_6June_Optimum_26_MOHC.PRM
  Tot(25)        6        6     2005    243.9    464.2   1283.3   379.80      0.0    230.6     13.3     16.9      0.0    122.7       58    259.9    258.2      100     0.000     0.000     0.000     0.000      107        0        0        0        7        7        0    21.269       96     40.2    8.552   -9.900     2.24    0.000    0.000       26        9     2005  Maize_short_Chisinau_6June_Optimum_26_MOHC.PRM
  Tot(26)        6        6     2006    224.5    508.3   1271.8   381.90      0.0    219.8      4.7      9.9      0.0    115.6       47    268.5    268.6      100     0.000     0.000     0.000     0.000      107        0        0        0        9        9        0    20.372       94     40.3    8.203   -9.900     2.14    0.000    0.000       26        9     2006  Maize_short_Chisinau_6June_Optimum_26_MOHC.PRM
  Tot(27)        6        6     2007    158.6    581.7   1358.0   383.77      0.0    158.1      0.5      0.0      0.0    110.8       32    235.1    236.1       95     0.000     0.000     0.000     0.000      107        0        0        0       11       21        3    16.215       78     40.3    6.528   -9.900     1.89    0.000    0.000       26        9     2007  Maize_short_Chisinau_6June_Optimum_26_MOHC.PRM
  Tot(28)        6        6     2008    239.5    514.8   1289.7   385.59      0.0    227.2     12.3      4.8      0.0    119.9       47    250.8    251.9       94     0.000     0.000     0.000     0.000      107        0        0        0       14        6        4    17.536       88     40.2    7.042   -9.900     1.90    0.000    0.000       26        9     2008  Maize_short_Chisinau_6June_Optimum_26_MOHC.PRM
  Tot(29)        6        6     2009    175.7    556.7   1379.5   387.37      0.0    173.5      2.2      0.0      0.0    116.2       42    265.1    265.0       91     0.000     0.000     0.000     0.000      107        0        0        0        6       10        8    18.442       82     40.2    7.414   -9.900     1.94    0.000    0.000       26        9     2009  Maize_short_Chisinau_6June_Optimum_26_MOHC.PRM
  Tot(30)        6        6     2010    248.7    490.7   1382.9   389.85      0.0    230.1     18.6     30.3      0.0    125.5       55    241.0    240.1       91     0.000     0.000     0.000     0.000      107        0        0        0       11       12        5    17.993       85     40.6    7.310   -9.900     1.99    0.000    0.000       26        9     2010  Maize_short_Chisinau_6June_Optimum_26_MOHC.PRM
  Tot(31)        6        6     2011    205.0    522.5   1358.5   391.63      0.0    185.1     19.9     29.8      0.0    141.0       56    230.2    231.6       84     0.000     0.000     0.000     0.000      107        0        0        0        7       11       16    16.036       69     40.0    6.408   -9.900     1.73    0.000    0.000       26        9     2011  Maize_short_Chisinau_6June_Optimum_26_MOHC.PRM
  Tot(32)        6        6     2012    146.0    597.2   1443.1   393.82      0.0    144.1      1.9      3.1      0.0     98.3       30    244.6    243.4       88     0.000     0.000     0.000     0.000      107        0        0        0        5       21       11    15.618       69     40.2    6.283   -9.900     1.83    0.000    0.000       26        9     2012  Maize_short_Chisinau_6June_Optimum_26_MOHC.PRM
  Tot(33)        6        6     2013    345.4    493.2   1303.2   396.48      0.0    292.7     52.7     37.3      0.0    119.6       50    240.9    241.8       97     0.000     0.000     0.000     0.000      107        0        0        0       12       10        2    18.524       90     40.5    7.501   -9.900     2.08    0.000    0.000       26        9     2013  Maize_short_Chisinau_6June_Optimum_26_MOHC.PRM
  Tot(34)        6        6     2014    170.9    550.3   1350.4   398.55      0.0    169.2      1.7      0.0      0.0    105.2       42    270.6    270.9       89     0.000     0.000     0.000     0.000      107        0        0        0        9       10       10    18.044       82     40.2    7.252   -9.900     1.93    0.000    0.000       26        9     2014  Maize_short_Chisinau_6June_Optimum_26_MOHC.PRM
  Tot(35)        6        6     2015    125.4    579.0   1437.4   401.00      0.0    124.8      0.6      0.0      0.0    129.4       40    205.3    205.3       81     0.000     0.000     0.000     0.000      102        0        0        0        5       24       18    12.722       55     39.3    5.003   -9.900     1.51    0.000    0.000       26        9     2015  Maize_short_Chisinau_6June_Optimum_26_MOHC.PRM
  Tot(36)        6        6     2016    160.2    553.8   1415.3   403.00      0.0    154.0      6.2     12.5      0.0    129.1       43    213.2    213.1       82     0.000     0.000     0.000     0.000      107        0        0        0        8       21       15    14.001       63     40.2    5.624   -9.900     1.64    0.000    0.000       26        9     2016  Maize_short_Chisinau_6June_Optimum_26_MOHC.PRM
  Tot(37)        6        6     2017    253.3    534.3   1396.1   405.00      0.0    233.1     20.2     24.7      0.0    138.7       57    279.8    279.4       93     0.000     0.000     0.000     0.000      107        0        0        0        6        4        7    19.825       87     39.9    7.919   -9.900     1.89    0.000    0.000       26        9     2017  Maize_short_Chisinau_6June_Optimum_26_MOHC.PRM
  Tot(38)        6        6     2018    286.1    507.8   1446.5   408.00      0.0    269.1     17.0     27.6      0.0    155.4       69    278.6    279.2       94     0.000     0.000     0.000     0.000      107        0        0        0        6        2        4    20.835       90     40.1    8.349   -9.900     1.92    0.000    0.000       26        9     2018  Maize_short_Chisinau_6June_Optimum_26_MOHC.PRM
  Tot(39)        6        6     2019    156.4    558.4   1419.7   410.00      0.0    153.3      3.1      1.1      0.0    117.3       42    245.5    245.4       86     0.000     0.000     0.000     0.000      107        0        0        0        7        9       15    16.683       74     39.7    6.616   -9.900     1.82    0.000    0.000       26        9     2019  Maize_short_Chisinau_6June_Optimum_26_MOHC.PRM
  Tot(40)        6        6     2020    127.9    629.7   1526.7   412.00      0.0    126.0      1.9      0.0      0.0    111.2       26    167.2    167.3       78     0.000     0.000     0.000     0.000      107        0        0        0        8       37       12     8.641       39     40.5    3.504   -9.900     1.26    0.000    0.000       26        9     2020  Maize_short_Chisinau_6June_Optimum_26_MOHC.PRM
  Tot(41)        6        6     2021     55.5    659.9   1561.5   414.00      0.0     55.4      0.1      0.0      0.0     70.4       16    198.1    197.9       80     0.000     0.000     0.000     0.000      107        0        0        0        5       34       18    11.134       48     40.3    4.482   -9.900     1.67    0.000    0.000       26        9     2021  Maize_short_Chisinau_6June_Optimum_26_MOHC.PRM
  Tot(42)        6        6     2022     56.9    694.4   1704.9   417.00      0.0     56.9      0.0      0.0      0.0     85.5       18    170.3    170.6       76     0.000     0.000     0.000     0.000       89        0        0        0        0       34       19     8.376       34     26.1    2.183   -9.900     0.86    0.000    0.000       26        9     2022  Maize_short_Chisinau_6June_Optimum_26_MOHC.PRM
  Tot(43)        6        6     2023     55.2    691.7   1608.4   419.00      0.0     55.2      0.0      0.0      0.0     74.9       15    159.5    159.5       74     0.000     0.000     0.000     0.000       90        0        0        0        2       35       18     7.734       33     27.1    2.096   -9.900     0.92    0.000    0.000       26        9     2023  Maize_short_Chisinau_6June_Optimum_26_MOHC.PRM
  Tot(44)        6        6     2024    178.9    615.5   1555.7   421.00      0.0    163.9     15.0     12.2      0.0    115.4       34    204.2    204.2       75     0.000     0.000     0.000     0.000       94        0        0        0        0       22       20    11.555       49     30.9    3.574   -9.900     1.14    0.000    0.000       26        9     2024  Maize_short_Chisinau_6June_Optimum_26_MOHC.PRM
  Tot(45)        6        6     2025     81.4    614.7   1497.0   423.00      0.0     79.9      1.5      0.0      0.0     71.7       16    188.7    187.9       92     0.000     0.000     0.000     0.000      107        0        0        0        7       39        4    12.292       55     40.9    5.026   -9.900     1.93    0.000    0.000       26        9     2025  Maize_short_Chisinau_6June_Optimum_26_MOHC.PRM
  Tot(46)        6        6     2026    134.9    703.3   1596.5   424.00      0.0    126.1      8.8      4.9      0.0    106.6       24    184.5    185.4       73     0.000     0.000     0.000     0.000       87        0        0        0        1       30       20     8.709       40     24.2    2.109   -9.900     0.78    0.000    0.000       26        9     2026  Maize_short_Chisinau_6June_Optimum_26_MOHC.PRM
  Tot(47)        6        6     2027     35.0    707.7   1596.8   426.00      0.0     35.0      0.0      0.0      0.0     69.2       13    156.3    156.3       80     0.000     0.000     0.000     0.000       94        0        0        0        2       39       16     7.463       33     30.4    2.270   -9.900     1.02    0.000    0.000       26        9     2027  Maize_short_Chisinau_6June_Optimum_26_MOHC.PRM
  Tot(48)        6        6     2028    106.8    668.1   1561.7   428.00      0.0     98.9      7.9      8.9      0.0     96.9       19    168.3    167.5       87     0.000     0.000     0.000     0.000      107        0        0        0        6       40        7     9.856       43     40.8    4.023   -9.900     1.52    0.000    0.000       26        9     2028  Maize_short_Chisinau_6June_Optimum_26_MOHC.PRM
  Tot(49)        6        6     2029     51.5    650.9   1603.9   429.00      0.0     50.8      0.7      0.3      0.0     79.2       18    164.5    165.4       76     0.000     0.000     0.000     0.000       87        0        0        0        1       35       19     8.058       34     24.1    1.939   -9.900     0.85    0.000    0.000       26        9     2029  Maize_short_Chisinau_6June_Optimum_26_MOHC.PRM
  Tot(50)        6        6     2030     63.7    755.4   1741.9   431.00      0.0     62.8      0.9      0.0      0.0     93.2       16    154.2    154.2       79     0.000     0.000     0.000     0.000       87        0        0        0        0       40       17     6.568       27     23.2    1.526   -9.900     0.62    0.000    0.000       26        9     2030  Maize_short_Chisinau_6June_Optimum_26_MOHC.PRM
  Tot(51)        6        6     2031     76.4    664.6   1634.1   432.00      0.0     76.3      0.1      0.0      0.0     94.2       23    181.0    181.0       75     0.000     0.000     0.000     0.000       92        0        0        0        0       31       19     9.392       39     29.1    2.729   -9.900     1.00    0.000    0.000       26        9     2031  Maize_short_Chisinau_6June_Optimum_26_MOHC.PRM
  Tot(52)        6        6     2032     23.3    743.2   1693.4   433.00      0.0     23.2      0.1      0.0      0.0     57.7       10    155.7    155.7       80     0.000     0.000     0.000     0.000       95        0        0        0        1       40       16     7.136       30     31.4    2.244   -9.900     1.05    0.000    0.000       26        9     2032  Maize_short_Chisinau_6June_Optimum_26_MOHC.PRM
  Tot(53)        6        6     2033     70.5    712.8   1627.4   435.00      0.0     69.5      1.0      0.0      0.0     94.8       18    160.9    160.9       79     0.000     0.000     0.000     0.000       95        0        0        0        2       39       16     7.395       31     31.4    2.322   -9.900     0.91    0.000    0.000       26        9     2033  Maize_short_Chisinau_6June_Optimum_26_MOHC.PRM
  Tot(54)        6        6     2034    190.6    560.3   1463.8   436.00      0.0    165.9     24.7      2.1      0.0    124.1       45    209.1    208.3       74     0.000     0.000     0.000     0.000      107        0        0        0        9       19       13    13.282       60     40.1    5.324   -9.900     1.60    0.000    0.000       26        9     2034  Maize_short_Chisinau_6June_Optimum_26_MOHC.PRM
  Tot(55)        6        6     2035     58.3    654.6   1575.0   437.00      0.0     58.3      0.0      0.0      0.0     85.9       19    161.6    162.4       77     0.000     0.000     0.000     0.000       88        0        0        0        1       35       18     8.061       34     25.2    2.029   -9.900     0.86    0.000    0.000       26        9     2035  Maize_short_Chisinau_6June_Optimum_26_MOHC.PRM
  Tot(56)        6        6     2036    134.2    672.9   1586.8   438.00      0.0    130.1      4.1      6.7      0.0    138.1       30    166.1    166.1       75     0.000     0.000     0.000     0.000       91        0        0        0        4       35       18     8.081       35     27.2    2.199   -9.900     0.75    0.000    0.000       26        9     2036  Maize_short_Chisinau_6June_Optimum_26_MOHC.PRM
  Tot(57)        6        6     2037     34.2    700.7   1659.2   438.00      0.0     34.1      0.1      0.0      0.0     67.7       13    157.3    157.3       79     0.000     0.000     0.000     0.000       90        0        0        0        2       39       17     7.469       31     27.3    2.039   -9.900     0.91    0.000    0.000       26        9     2037  Maize_short_Chisinau_6June_Optimum_26_MOHC.PRM
  Tot(58)        6        6     2038     67.0    582.8   1458.0   439.00      0.0     66.4      0.6      0.1      0.0     94.5       27    170.2    170.2       75     0.000     0.000     0.000     0.000       90        0        0        0        3       31       19     9.317       39     27.0    2.519   -9.900     0.97    0.000    0.000       26        9     2038  Maize_short_Chisinau_6June_Optimum_26_MOHC.PRM
  Tot(59)        6        6     2039     88.8    712.5   1645.1   440.00      0.0     79.0      9.8      6.8      0.0     91.0       17    159.4    159.4       80     0.000     0.000     0.000     0.000       95        0        0        0        1       40       16     7.504       32     30.4    2.279   -9.900     0.95    0.000    0.000       26        9     2039  Maize_short_Chisinau_6June_Optimum_26_MOHC.PRM
  Tot(60)        6        6     2040     19.0    689.5   1597.0   440.00      0.0     19.0      0.0      0.0      0.0     55.0       11    162.5    162.5       79     0.000     0.000     0.000     0.000       94        0        0        0        1       36       17     8.451       35     31.3    2.644   -9.900     1.23    0.000    0.000       26        9     2040  Maize_short_Chisinau_6June_Optimum_26_MOHC.PRM
  Tot(61)        6        6     2041     50.4    719.4   1586.8   441.00      0.0     50.4      0.0      0.0      0.0     73.7       14    157.9    157.9       77     0.000     0.000     0.000     0.000       88        0        0        0        1       38       18     7.432       32     25.1    1.868   -9.900     0.85    0.000    0.000       26        9     2041  Maize_short_Chisinau_6June_Optimum_26_MOHC.PRM
  Tot(62)        6        6     2042     86.1    604.0   1546.0   441.00      0.0     85.7      0.4      2.1      0.0     89.2       27    208.0    208.0       78     0.000     0.000     0.000     0.000       97        0        0        0        1       20       19    12.417       51     34.1    4.228   -9.900     1.43    0.000    0.000       26        9     2042  Maize_short_Chisinau_6June_Optimum_26_MOHC.PRM
  Tot(63)        6        6     2043    110.9    674.8   1578.4   441.00      0.0    104.7      6.2      0.0      0.0     87.5       19    160.3    160.3       75     0.000     0.000     0.000     0.000       87        0        0        0        1       37       19     7.274       32     23.1    1.679   -9.900     0.71    0.000    0.000       26        9     2043  Maize_short_Chisinau_6June_Optimum_26_MOHC.PRM
  Tot(64)        6        6     2044    155.1    592.6   1503.6   442.00      0.0    153.4      1.7      0.0      0.0    165.7       49    188.5    188.5       76     0.000     0.000     0.000     0.000      107        0        0        0        7       25       21    11.009       49     40.1    4.418   -9.900     1.25    0.000    0.000       26        9     2044  Maize_short_Chisinau_6June_Optimum_26_MOHC.PRM
  Tot(65)        6        6     2045    180.2    607.9   1407.1   442.00      0.0    140.2     40.0      0.0      0.0     93.6       24    169.2    169.2       75     0.000     0.000     0.000     0.000      107        0        0        0       13       34       15     8.577       41     35.4    3.038   -9.900     1.16    0.000    0.000       26        9     2045  Maize_short_Chisinau_6June_Optimum_26_MOHC.PRM
  Tot(66)        6        6     2046     48.2    775.8   1765.1   442.00      0.0     47.8      0.4      0.0      0.0     81.9       13    156.5    156.5       82     0.000     0.000     0.000     0.000       93        0        0        0        0       41       16     7.121       31     29.4    2.092   -9.900     0.89    0.000    0.000       26        9     2046  Maize_short_Chisinau_6June_Optimum_26_MOHC.PRM
  Tot(67)        6        6     2047     63.8    695.5   1740.2   442.00      0.0     63.3      0.5      0.0      0.0     72.5       15    158.5    158.5       77     0.000     0.000     0.000     0.000       91        0        0        0        1       37       17     7.767       32     27.2    2.113   -9.900     0.94    0.000    0.000       26        9     2047  Maize_short_Chisinau_6June_Optimum_26_MOHC.PRM
  Tot(68)        6        6     2048    151.3    593.9   1470.4   442.00      0.0    141.7      9.6     26.6      0.0    106.3       32    213.2    213.2       82     0.000     0.000     0.000     0.000      103        0        0        0        7       23       17    13.201       59     40.3    5.321   -9.900     1.68    0.000    0.000       26        9     2048  Maize_short_Chisinau_6June_Optimum_26_MOHC.PRM
  Tot(69)        6        6     2049     87.7    600.5   1571.6   443.00      0.0     87.5      0.2      0.0      0.0     90.6       25    207.2    207.2       82     0.000     0.000     0.000     0.000      107        0        0        0        5       29       17    13.652       59     40.3    5.499   -9.900     1.85    0.000    0.000       26        9     2049  Maize_short_Chisinau_6June_Optimum_26_MOHC.PRM
  Tot(70)        6        6     2050    109.4    622.4   1606.9   443.00      0.0    106.5      2.9      8.5      0.0    104.9       27    195.2    194.8       80     0.000     0.000     0.000     0.000      107        0        0        0        5       33       14    12.061       51     40.6    4.897   -9.900     1.63    0.000    0.000       26        9     2050  Maize_short_Chisinau_6June_Optimum_26_MOHC.PRM
  Tot(71)        6        6     2051     57.2    674.7   1573.2   443.00      0.0     49.9      7.3     19.3      0.0     63.5       14    162.3    162.8       77     0.000     0.000     0.000     0.000       90        0        0        0        2       37       18     8.141       34     27.1    2.210   -9.900     1.00    0.000    0.000       26        9     2051  Maize_short_Chisinau_6June_Optimum_26_MOHC.PRM
  Tot(72)        6        6     2052    106.0    619.5   1634.8   443.00      0.0    106.0      0.0      0.0      0.0    116.4       30    186.9    186.9       79     0.000     0.000     0.000     0.000       95        0        0        0        0       29       18    10.523       44     32.2    3.385   -9.900     1.13    0.000    0.000       26        9     2052  Maize_short_Chisinau_6June_Optimum_26_MOHC.PRM
  Tot(73)        6        6     2053    108.3    659.4   1562.4   443.00      0.0    107.5      0.8      0.0      0.0    120.1       26    166.3    166.3       78     0.000     0.000     0.000     0.000       93        0        0        0        1       35       18     8.696       39     29.3    2.545   -9.900     0.94    0.000    0.000       26        9     2053  Maize_short_Chisinau_6June_Optimum_26_MOHC.PRM
  Tot(74)        6        6     2054    136.0    598.5   1479.7   443.00      0.0    124.5     11.5      0.0      0.0    104.2       27    182.5    181.6       82     0.000     0.000     0.000     0.000      107        0        0        0        5       34       11    11.144       48     40.6    4.523   -9.900     1.58    0.000    0.000       26        9     2054  Maize_short_Chisinau_6June_Optimum_26_MOHC.PRM
  Tot(75)        6        6     2055    100.4    674.0   1649.6   443.00      0.0     97.7      2.7      0.0      0.0     81.4       20    225.0    225.4       80     0.000     0.000     0.000     0.000      107        0        0        0        3       26       15    13.927       58     40.4    5.633   -9.900     1.84    0.000    0.000       26        9     2055  Maize_short_Chisinau_6June_Optimum_26_MOHC.PRM
  Tot(76)        6        6     2056    155.9    650.5   1593.6   442.00      0.0    146.2      9.7     11.2      0.0    132.0       33    175.0    175.4       72     0.000     0.000     0.000     0.000       88        0        0        0        2       30       20     8.970       38     24.9    2.232   -9.900     0.77    0.000    0.000       26        9     2056  Maize_short_Chisinau_6June_Optimum_26_MOHC.PRM
  Tot(77)        6        6     2057    109.9    672.2   1639.4   442.00      0.0    106.1      3.8      3.7      0.0    125.1       29    172.9    172.9       75     0.000     0.000     0.000     0.000       87        0        0        0        0       33       20     8.552       37     24.0    2.052   -9.900     0.69    0.000    0.000       26        9     2057  Maize_short_Chisinau_6June_Optimum_26_MOHC.PRM
  Tot(78)        6        6     2058     73.9    657.9   1594.8   442.00      0.0     73.7      0.2      0.0      0.0     97.7       23    177.4    177.4       75     0.000     0.000     0.000     0.000       90        0        0        0        1       30       19     9.485       41     27.0    2.556   -9.900     0.98    0.000    0.000       26        9     2058  Maize_short_Chisinau_6June_Optimum_26_MOHC.PRM
  Tot(79)        6        6     2059     45.1    661.0   1630.3   442.00      0.0     45.0      0.1      0.0      0.0     62.0       14    194.2    194.2       79     0.000     0.000     0.000     0.000       99        0        0        0        1       29       18    10.979       46     35.9    3.943   -9.900     1.56    0.000    0.000       26        9     2059  Maize_short_Chisinau_6June_Optimum_26_MOHC.PRM
  Tot(80)        6        6     2060     29.2    632.7   1561.9   442.00      0.0     29.2      0.0      0.0      0.0     57.9       14    166.7    166.7       76     0.000     0.000     0.000     0.000       91        0        0        0        1       33       18     8.984       37     28.1    2.524   -9.900     1.16    0.000    0.000       26        9     2060  Maize_short_Chisinau_6June_Optimum_26_MOHC.PRM
  Tot(81)        6        6     2061     62.0    627.9   1570.6   441.00      0.0     60.7      1.3      0.0      0.0     67.0       15    163.7    163.7       79     0.000     0.000     0.000     0.000       93        0        0        0        0       35       17     8.714       39     30.3    2.636   -9.900     1.20    0.000    0.000       26        9     2061  Maize_short_Chisinau_6June_Optimum_26_MOHC.PRM
  Tot(82)        6        6     2062    110.7    620.1   1561.5   441.00      0.0    110.5      0.2      0.0      0.0    106.9       27    200.8    200.8       82     0.000     0.000     0.000     0.000      107        0        0        0        7       33       13    12.303       54     40.5    4.989   -9.900     1.62    0.000    0.000       26        9     2062  Maize_short_Chisinau_6June_Optimum_26_MOHC.PRM
  Tot(83)        6        6     2063    107.4    612.2   1562.4   441.00      0.0    105.0      2.4      0.0      0.0     79.6       21    191.8    190.9       79     0.000     0.000     0.000     0.000      107        0        0        0        5       35       13    11.176       48     14.2    1.588   -9.900     0.58    0.000    0.000       26        9     2063  Maize_short_Chisinau_6June_Optimum_26_MOHC.PRM
  Tot(84)        6        6     2064     43.6    661.8   1596.8   440.00      0.0     43.6      0.0      0.0      0.0     70.6       15    159.6    160.6       79     0.000     0.000     0.000     0.000       93        0        0        0        1       38       17     7.813       34     30.4    2.372   -9.900     1.09    0.000    0.000       26        9     2064  Maize_short_Chisinau_6June_Optimum_26_MOHC.PRM
  Tot(85)        6        6     2065     49.0    713.3   1627.3   440.00      0.0     48.7      0.3      0.0      0.0     63.7       12    170.3    170.2       85     0.000     0.000     0.000     0.000      107        0        0        0        4       38       11     9.637       41     40.6    3.917   -9.900     1.67    0.000    0.000       26        9     2065  Maize_short_Chisinau_6June_Optimum_26_MOHC.PRM
  Tot(86)        6        6     2066    192.7    596.3   1469.3   440.00      0.0    163.5     29.2      0.0      0.0     94.5       26    215.8    215.1       90     0.000     0.000     0.000     0.000      107        0        0        0        9       33        4    14.751       68     39.6    5.840   -9.900     1.88    0.000    0.000       26        9     2066  Maize_short_Chisinau_6June_Optimum_26_MOHC.PRM
  Tot(87)        6        6     2067    160.1    620.7   1536.4   439.00      0.0    150.1     10.0      0.8      0.0     69.3       17    225.9    227.1       89     0.000     0.000     0.000     0.000      107        0        0        0        3       30        8    14.525       61     40.4    5.864   -9.900     1.99    0.000    0.000       26        9     2067  Maize_short_Chisinau_6June_Optimum_26_MOHC.PRM
  Tot(88)        6        6     2068    131.0    573.7   1495.6   439.00      0.0    128.1      2.9      1.9      0.0    129.8       41    206.5    207.0       82     0.000     0.000     0.000     0.000      100        0        0        0        2       24       18    12.818       53     37.3    4.778   -9.900     1.42    0.000    0.000       26        9     2068  Maize_short_Chisinau_6June_Optimum_26_MOHC.PRM
  Tot(89)        6        6     2069     55.3    644.8   1620.6   438.00      0.0     55.3      0.0      0.0      0.0     83.6       20    180.8    180.8       77     0.000     0.000     0.000     0.000       95        0        0        0        0       30       19    10.513       43     32.0    3.363   -9.900     1.28    0.000    0.000       26        9     2069  Maize_short_Chisinau_6June_Optimum_26_MOHC.PRM
  Tot(90)        6        6     2070     46.9    603.4   1524.7   437.00      0.0     46.9      0.0      0.0      0.0     79.0       20    167.1    167.1       80     0.000     0.000     0.000     0.000       96        0        0        0        3       35       17     9.429       41     33.4    3.147   -9.900     1.30    0.000    0.000       26        9     2070  Maize_short_Chisinau_6June_Optimum_26_MOHC.PRM
  Tot(91)        6        6     2071    125.9    566.5   1452.0   437.00      0.0    117.6      8.3      0.0      0.0     80.1       25    232.5    231.2       89     0.000     0.000     0.000     0.000      107        0        0        0        8       26        7    16.071       73     40.8    6.557   -9.900     2.10    0.000    0.000       26        9     2071  Maize_short_Chisinau_6June_Optimum_26_MOHC.PRM
  Tot(92)        6        6     2072     49.2    639.6   1541.7   436.00      0.0     49.2      0.0      0.0      0.0     78.7       20    180.7    182.0       76     0.000     0.000     0.000     0.000       95        0        0        0        1       27       19    10.803       46     32.0    3.452   -9.900     1.34    0.000    0.000       26        9     2072  Maize_short_Chisinau_6June_Optimum_26_MOHC.PRM
  Tot(93)        6        6     2073     54.6    675.8   1631.1   436.00      0.0     53.7      0.9      2.3      0.0     76.2       17    177.0    177.0       77     0.000     0.000     0.000     0.000       92        0        0        0        1       31       19     9.394       39     29.1    2.734   -9.900     1.08    0.000    0.000       26        9     2073  Maize_short_Chisinau_6June_Optimum_26_MOHC.PRM
  Tot(94)        6        6     2074     58.4    610.7   1501.4   435.00      0.0     58.2      0.2      0.0      0.0     79.5       22    182.1    182.1       77     0.000     0.000     0.000     0.000       91        0        0        0        3       29       19     9.932       42     28.0    2.782   -9.900     1.08    0.000    0.000       26        9     2074  Maize_short_Chisinau_6June_Optimum_26_MOHC.PRM
  Tot(95)        6        6     2075    104.5    572.9   1427.3   435.00      0.0    103.4      1.1      1.9      0.0     99.5       29    177.5    177.5       77     0.000     0.000     0.000     0.000       95        0        0        0        4       31       18     9.718       44     32.3    3.135   -9.900     1.17    0.000    0.000       26        9     2075  Maize_short_Chisinau_6June_Optimum_26_MOHC.PRM
  Tot(96)        6        6     2076     44.5    694.0   1645.0   434.00      0.0     44.3      0.2      0.0      0.0     73.8       15    157.1    157.1       77     0.000     0.000     0.000     0.000       88        0        0        0        0       37       18     7.224       32     24.2    1.747   -9.900     0.77    0.000    0.000       26        9     2076  Maize_short_Chisinau_6June_Optimum_26_MOHC.PRM
  Tot(97)        6        6     2077     29.8    696.7   1499.1   433.00      0.0     29.8      0.0      0.0      0.0     64.9       13    158.3    158.3       80     0.000     0.000     0.000     0.000       93        0        0        0        2       38       16     7.775       34     30.4    2.360   -9.900     1.06    0.000    0.000       26        9     2077  Maize_short_Chisinau_6June_Optimum_26_MOHC.PRM
  Tot(98)        6        6     2078    107.3    614.3   1578.8   433.00      0.0    107.3      0.0      0.0      0.0    115.5       31    176.8    176.8       75     0.000     0.000     0.000     0.000       91        0        0        0        1       29       19     9.888       43     28.0    2.764   -9.900     0.97    0.000    0.000       26        9     2078  Maize_short_Chisinau_6June_Optimum_26_MOHC.PRM
  Tot(99)        6        6     2079     57.6    618.0   1555.0   432.00      0.0     57.6      0.0      0.0      0.0     80.8       20    171.2    171.2       78     0.000     0.000     0.000     0.000       95        0        0        0        3       34       17     9.072       39     32.3    2.931   -9.900     1.18    0.000    0.000       26        9     2079  Maize_short_Chisinau_6June_Optimum_26_MOHC.PRM
 Tot(100)        6        6     2080     99.1    651.7   1566.2   432.00      0.0     97.5      1.6      0.0      0.0     94.9       21    158.6    158.6       78     0.000     0.000     0.000     0.000       91        0        0        0        1       38       18     7.442       32     27.3    2.029   -9.900     0.88    0.000    0.000       26        9     2080  Maize_short_Chisinau_6June_Optimum_26_MOHC.PRM
 Tot(101)        6        6     2081     53.4    698.3   1693.2   431.00      0.0     53.4      0.0      0.0      0.0     77.9       15    172.5    172.5       82     0.000     0.000     0.000     0.000       99        0        0        0        1       39       16     8.862       38     36.5    3.238   -9.900     1.30    0.000    0.000       26        9     2081  Maize_short_Chisinau_6June_Optimum_26_MOHC.PRM
 Tot(102)        6        6     2082     27.9    742.7   1728.5   431.00      0.0     27.7      0.2      0.0      0.0     62.6       11    155.1    155.1       77     0.000     0.000     0.000     0.000       89        0        0        0        0       39       18     7.057       29     25.2    1.778   -9.900     0.83    0.000    0.000       26        9     2082  Maize_short_Chisinau_6June_Optimum_26_MOHC.PRM
 Tot(103)        6        6     2083    111.3    661.6   1650.1   430.00      0.0    109.6      1.7      1.6      0.0    105.8       24    206.8    206.1       83     0.000     0.000     0.000     0.000      107        0        0        0        1       37       14    12.145       50     40.7    4.945   -9.900     1.58    0.000    0.000       26        9     2083  Maize_short_Chisinau_6June_Optimum_26_MOHC.PRM
 Tot(104)        6        6     2084    111.8    673.2   1650.5   429.00      0.0    103.9      7.9     17.7      0.0    111.5       25    163.7    164.3       74     0.000     0.000     0.000     0.000       88        0        0        0        1       35       19     7.754       33     25.1    1.944   -9.900     0.71    0.000    0.000       26        9     2084  Maize_short_Chisinau_6June_Optimum_26_MOHC.PRM
 Tot(105)        6        6     2085    108.6    613.2   1638.3   429.00      0.0    103.7      4.9      0.0      0.0    100.0       24    168.4    168.4       79     0.000     0.000     0.000     0.000       94        0        0        0        2       34       18     9.294       38     31.3    2.905   -9.900     1.18    0.000    0.000       26        9     2085  Maize_short_Chisinau_6June_Optimum_26_MOHC.PRM
 Tot(106)        6        6     2086     74.8    597.7   1490.2   428.00      0.0     74.8      0.0      0.0      0.0     93.5       24    170.3    170.2       79     0.000     0.000     0.000     0.000      107        0        0        0        5       35       17     9.212       40     40.5    3.733   -9.900     1.42    0.000    0.000       26        9     2086  Maize_short_Chisinau_6June_Optimum_26_MOHC.PRM
 Tot(107)        6        6     2087     89.3    669.1   1664.2   428.00      0.0     89.2      0.1      0.0      0.0     90.4       20    190.0    189.9       80     0.000     0.000     0.000     0.000      107        0        0        0        5       36       14    11.338       49     37.7    4.279   -9.900     1.53    0.000    0.000       26        9     2087  Maize_short_Chisinau_6June_Optimum_26_MOHC.PRM
 Tot(108)        6        6     2088    259.3    562.6   1452.3   427.00      0.0    213.5     45.8      6.7      0.0     96.4       32    215.1    214.5       82     0.000     0.000     0.000     0.000      107        0        0        0       10       29       10    13.400       62     32.1    4.302   -9.900     1.38    0.000    0.000       26        9     2088  Maize_short_Chisinau_6June_Optimum_26_MOHC.PRM
 Tot(109)        6        6     2089    100.1    583.0   1520.9   427.00      0.0    100.1      0.0      0.0      0.0     96.6       28    204.3    204.6       81     0.000     0.000     0.000     0.000      107        0        0        0        5       29       17    12.842       56     40.3    5.181   -9.900     1.72    0.000    0.000       26        9     2089  Maize_short_Chisinau_6June_Optimum_26_MOHC.PRM
 Tot(110)        6        6     2090     82.3    683.7   1640.3   426.00      0.0     82.3      0.0      0.0      0.0    106.1       24    182.8    183.1       75     0.000     0.000     0.000     0.000       93        0        0        0        0       29       19     9.999       44     30.3    3.026   -9.900     1.07    0.000    0.000       26        9     2090  Maize_short_Chisinau_6June_Optimum_26_MOHC.PRM
 Tot(111)        6        6     2091     90.0    561.8   1496.6   425.00      0.0     90.0      0.0      0.0      0.0     82.0       26    213.1    213.1       82     0.000     0.000     0.000     0.000      107        0        0        0        6       21       13    15.307       67     40.5    6.197   -9.900     2.10    0.000    0.000       26        9     2091  Maize_short_Chisinau_6June_Optimum_26_MOHC.PRM
 Tot(112)        6        6     2092    100.6    596.3   1507.7   425.00      0.0    100.0      0.6      0.0      0.0    109.0       32    182.7    182.8       73     0.000     0.000     0.000     0.000       91        0        0        0        2       27       20    10.139       45     27.8    2.816   -9.900     1.00    0.000    0.000       26        9     2092  Maize_short_Chisinau_6June_Optimum_26_MOHC.PRM
 Tot(113)        6        6     2093     55.4    652.7   1604.0   424.00      0.0     55.0      0.4      0.0      0.0     85.3       19    160.6    160.6       77     0.000     0.000     0.000     0.000       91        0        0        0        1       36       17     7.920       34     27.2    2.157   -9.900     0.88    0.000    0.000       26        9     2093  Maize_short_Chisinau_6June_Optimum_26_MOHC.PRM
 Tot(114)        6        6     2094     99.7    593.2   1468.1   424.00      0.0     95.9      3.8      0.0      0.0     92.1       25    174.7    174.6       76     0.000     0.000     0.000     0.000      107        0        0        0        9       32       13    10.046       46     40.4    4.059   -9.900     1.52    0.000    0.000       26        9     2094  Maize_short_Chisinau_6June_Optimum_26_MOHC.PRM
 Tot(115)        6        6     2095    274.1    619.8   1532.2   423.00      0.0    222.4     51.7      2.7      0.0    133.1       34    172.1    172.2       75     0.000     0.000     0.000     0.000       85        0        0        0        1       34       20     8.009       37     22.0    1.759   -9.900     0.61    0.000    0.000       26        9     2095  Maize_short_Chisinau_6June_Optimum_26_MOHC.PRM
 Tot(116)        6        6     2096     48.4    683.7   1719.8   423.00      0.0     48.4      0.0      0.0      0.0     74.0       15    176.7    176.7       79     0.000     0.000     0.000     0.000       98        0        0        0        0       32       17    10.122       41     35.2    3.560   -9.900     1.48    0.000    0.000       26        9     2096  Maize_short_Chisinau_6June_Optimum_26_MOHC.PRM
 Tot(117)        6        6     2097    142.0    612.7   1562.1   422.00      0.0    108.0     34.0      2.2      0.0     78.4       21    174.0    174.0       74     0.000     0.000     0.000     0.000       89        0        0        0        1       31       20     8.904       38     25.9    2.307   -9.900     0.93    0.000    0.000       26        9     2097  Maize_short_Chisinau_6June_Optimum_26_MOHC.PRM
 Tot(118)        6        6     2098     46.9    637.1   1481.2   422.00      0.0     46.9      0.0      0.0      0.0     58.1       16    202.7    202.7       76     0.000     0.000     0.000     0.000       97        0        0        0        2       22       19    11.533       51     33.8    3.898   -9.900     1.51    0.000    0.000       26        9     2098  Maize_short_Chisinau_6June_Optimum_26_MOHC.PRM
 Tot(119)        6        6     2099     27.4    783.4   1721.2   421.00      0.0     27.3      0.1      0.0      0.0     64.5       10    151.9    151.9       81     0.000     0.000     0.000     0.000       92        0        0        0        1       42       16     6.636       29     22.1    1.469   -9.900     0.68    0.000    0.000       26        9     2099  Maize_short_Chisinau_6June_Optimum_26_MOHC.PRM
