AquaCrop 7.0 (August 2022) - Output created on (date) : 24-11-2022   at (time) : 10:15:46

    RunNr     Day1   Month1    Year1     Rain      ETo       GD     CO2      Irri   Infilt   Runoff    Drain   Upflow        E     E/Ex       Tr      TrW   Tr/Trx    SaltIn   SaltOut    SaltUp  SaltProf     Cycle   SaltStr  FertStr  WeedStr  TempStr   ExpStr   StoStr  BioMass  Brelative   HI    Y(dry)  Y(fresh)    WPet      Bin     Bout     DayN   MonthN    YearN
                                           mm       mm  degC.day    ppm        mm       mm       mm       mm       mm       mm        %       mm       mm        %    ton/ha    ton/ha    ton/ha    ton/ha      days       %        %        %        %        %        %    ton/ha        %       %    ton/ha   ton/ha    kg/m3   ton/ha   ton/ha
   Tot(1)        7        5     1981    150.4    483.8   1212.1   340.11      0.0    145.9      4.5     12.1      0.0     84.3       41    248.4    192.6       87     0.000     0.000     0.000     0.000      107        0       42       25       12        5        9    13.734       64     39.6    5.444   -9.900     1.64    0.000    0.000       27        8     1981  Maize_short_Chisinau_7May_NonOptimum_85_MPI.PRM
   Tot(2)        7        5     1982    192.0    471.0   1188.7   341.22      0.0    191.9      0.1      0.0      0.0     76.4       35    258.6    198.8      100     0.000     0.000     0.000     0.000      107        0       42       25       11        2        0    15.957       74     40.0    6.384   -9.900     1.91    0.000    0.000       27        8     1982  Maize_short_Chisinau_7May_NonOptimum_85_MPI.PRM
   Tot(3)        7        5     1983    269.2    465.2   1233.5   342.84      0.0    253.3     15.9     23.6      0.0     99.3       48    261.7    202.2      100     0.000     0.000     0.000     0.000      107        0       42       25        9        2        0    16.019       75     40.1    6.418   -9.900     1.78    0.000    0.000       27        8     1983  Maize_short_Chisinau_7May_NonOptimum_85_MPI.PRM
   Tot(4)        7        5     1984    239.1    438.2   1067.3   344.40      0.0    237.1      2.0      2.8      0.0    134.8       75    245.6    191.3      100     0.000     0.000     0.000     0.000      107        0       42       25       17        0        0    15.222       75     40.0    6.090   -9.900     1.60    0.000    0.000       27        8     1984  Maize_short_Chisinau_7May_NonOptimum_85_MPI.PRM
   Tot(5)        7        5     1985    292.8    461.8   1172.6   345.87      0.0    263.1     29.7     63.0      0.0    102.2       53    265.5    202.8      100     0.000     0.000     0.000     0.000      107        0       42       25       13        0        0    15.701       75     40.0    6.281   -9.900     1.71    0.000    0.000       27        8     1985  Maize_short_Chisinau_7May_NonOptimum_85_MPI.PRM
   Tot(6)        7        5     1986    172.4    527.7   1261.6   347.19      0.0    171.9      0.5      0.0      0.0     89.5       39    281.4    219.1       93     0.000     0.000     0.000     0.000      107        0       42       25        8        5        4    14.907       69     40.0    5.965   -9.900     1.61    0.000    0.000       27        8     1986  Maize_short_Chisinau_7May_NonOptimum_85_MPI.PRM
   Tot(7)        7        5     1987    259.6    481.6   1137.9   348.98      0.0    253.3      6.3      0.0      0.0    110.0       59    294.0    227.1      100     0.000     0.000     0.000     0.000      107        0       42       25       15        3        0    15.808       75     40.2    6.348   -9.900     1.57    0.000    0.000       27        8     1987  Maize_short_Chisinau_7May_NonOptimum_85_MPI.PRM
   Tot(8)        7        5     1988    236.3    471.5   1252.6   351.45      0.0    227.3      9.0     15.1      0.0    121.2       71    286.2    223.5       93     0.000     0.000     0.000     0.000      107        0       42       25        9        3        5    15.514       70     39.9    6.196   -9.900     1.52    0.000    0.000       27        8     1988  Maize_short_Chisinau_7May_NonOptimum_85_MPI.PRM
   Tot(9)        7        5     1989    210.4    486.7   1164.0   352.89      0.0    207.5      2.9      2.5      0.0     95.5       49    291.8    224.6       99     0.000     0.000     0.000     0.000      107        0       42       25       14        3        1    16.171       74     40.2    6.499   -9.900     1.68    0.000    0.000       27        8     1989  Maize_short_Chisinau_7May_NonOptimum_85_MPI.PRM
  Tot(10)        7        5     1990    161.6    507.1   1149.5   354.16      0.0    158.4      3.2      2.2      0.0    115.0       55    257.2    200.1       86     0.000     0.000     0.000     0.000      107        0       42       25       16        5       11    13.812       62     39.9    5.514   -9.900     1.48    0.000    0.000       27        8     1990  Maize_short_Chisinau_7May_NonOptimum_85_MPI.PRM
  Tot(11)        7        5     1991    438.7    420.7   1183.0   355.48      0.0    393.0     45.7     66.9      0.0    123.6       82    281.3    217.0      100     0.000     0.000     0.000     0.000      107        0       42       25       17        0        0    17.231       75     40.0    6.894   -9.900     1.70    0.000    0.000       27        8     1991  Maize_short_Chisinau_7May_NonOptimum_85_MPI.PRM
  Tot(12)        7        5     1992    191.1    523.2   1230.9   356.27      0.0    188.5      2.6      5.7      0.0    128.5       66    273.6    212.5       83     0.000     0.000     0.000     0.000      107        0       42       25       16        4       13    13.651       60     39.5    5.391   -9.900     1.34    0.000    0.000       27        8     1992  Maize_short_Chisinau_7May_NonOptimum_85_MPI.PRM
  Tot(13)        7        5     1993    202.8    503.8   1154.4   356.95      0.0    196.6      6.2     19.9      0.0    106.9       53    274.0    212.1       93     0.000     0.000     0.000     0.000      107        0       42       25       13        3        5    14.548       70     39.9    5.807   -9.900     1.52    0.000    0.000       27        8     1993  Maize_short_Chisinau_7May_NonOptimum_85_MPI.PRM
  Tot(14)        7        5     1994    258.9    536.5   1263.4   358.63      0.0    219.5     39.4      7.8      0.0    105.8       45    256.5    201.0       84     0.000     0.000     0.000     0.000      107        0       42       25       10       11       11    12.833       57     39.7    5.096   -9.900     1.41    0.000    0.000       27        8     1994  Maize_short_Chisinau_7May_NonOptimum_85_MPI.PRM
  Tot(15)        7        5     1995    186.0    502.8   1281.6   360.62      0.0    184.0      2.0      2.1      0.0     91.1       44    283.7    219.6       91     0.000     0.000     0.000     0.000      107        0       42       25        8        6        6    15.609       68     40.1    6.258   -9.900     1.67    0.000    0.000       27        8     1995  Maize_short_Chisinau_7May_NonOptimum_85_MPI.PRM
  Tot(16)        7        5     1996    148.0    541.5   1272.6   362.37      0.0    147.1      0.9      0.0      0.0    101.4       38    231.0    181.7       85     0.000     0.000     0.000     0.000      107        0       42       25       10       18       10    12.116       55     40.5    4.906   -9.900     1.48    0.000    0.000       27        8     1996  Maize_short_Chisinau_7May_NonOptimum_85_MPI.PRM
  Tot(17)        7        5     1997    305.0    448.8   1194.3   363.47      0.0    288.7     16.3      0.0      0.0     83.2       41    258.3    200.5      100     0.000     0.000     0.000     0.000      107        0       42       25       12        3        0    16.781       75     40.0    6.718   -9.900     1.97    0.000    0.000       27        8     1997  Maize_short_Chisinau_7May_NonOptimum_85_MPI.PRM
  Tot(18)        7        5     1998    210.4    488.7   1249.2   366.50      0.0    205.7      4.7     10.9      0.0    111.7       61    290.0    223.4       94     0.000     0.000     0.000     0.000      107        0       42       25       14        1        5    15.740       71     39.9    6.287   -9.900     1.57    0.000    0.000       27        8     1998  Maize_short_Chisinau_7May_NonOptimum_85_MPI.PRM
  Tot(19)        7        5     1999    158.4    516.7   1334.1   368.14      0.0    157.0      1.4      0.0      0.0    100.6       45    268.0    209.4       87     0.000     0.000     0.000     0.000      107        0       42       25        8        7       10    14.361       61     40.1    5.758   -9.900     1.56    0.000    0.000       27        8     1999  Maize_short_Chisinau_7May_NonOptimum_85_MPI.PRM
  Tot(20)        7        5     2000    167.4    572.2   1257.5   369.41      0.0    163.5      3.9      0.0      0.0     68.3       25    276.6    216.9       91     0.000     0.000     0.000     0.000      107        0       42       25       11       15        6    14.018       64     40.2    5.631   -9.900     1.63    0.000    0.000       27        8     2000  Maize_short_Chisinau_7May_NonOptimum_85_MPI.PRM
  Tot(21)        7        5     2001    210.4    518.6   1269.3   371.07      0.0    189.0     21.4     20.8      0.0    114.9       57    275.9    213.2       85     0.000     0.000     0.000     0.000      107        0       42       25       13        2       12    14.489       63     39.6    5.734   -9.900     1.47    0.000    0.000       27        8     2001  Maize_short_Chisinau_7May_NonOptimum_85_MPI.PRM
  Tot(22)        7        5     2002    285.3    517.8   1347.8   373.16      0.0    259.1     26.2      0.0      0.0    101.6       45    297.0    230.4       96     0.000     0.000     0.000     0.000      107        0       42       25        7       18        2    16.142       69     40.9    6.603   -9.900     1.66    0.000    0.000       27        8     2002  Maize_short_Chisinau_7May_NonOptimum_85_MPI.PRM
  Tot(23)        7        5     2003    186.5    574.0   1346.0   375.80      0.0    185.1      1.4      0.0      0.0     79.3       27    298.2    233.0       98     0.000     0.000     0.000     0.000      107        0       42       25        6       10        1    16.111       70     40.1    6.458   -9.900     1.71    0.000    0.000       27        8     2003  Maize_short_Chisinau_7May_NonOptimum_85_MPI.PRM
  Tot(24)        7        5     2004    218.3    504.4   1151.0   377.49      0.0    209.4      8.9      0.0      0.0    107.5       51    288.6    225.0       96     0.000     0.000     0.000     0.000      107        0       42       25       16       11        3    15.863       70     40.3    6.397   -9.900     1.62    0.000    0.000       27        8     2004  Maize_short_Chisinau_7May_NonOptimum_85_MPI.PRM
  Tot(25)        7        5     2005    328.8    485.2   1234.8   379.80      0.0    312.1     16.7     20.4      0.0    126.4       64    298.8    230.9      100     0.000     0.000     0.000     0.000      107        0       42       25       10        1        0    17.366       75     40.1    6.959   -9.900     1.64    0.000    0.000       27        8     2005  Maize_short_Chisinau_7May_NonOptimum_85_MPI.PRM
  Tot(26)        7        5     2006    272.0    533.8   1259.8   381.90      0.0    265.7      6.3      5.5      0.0    142.1       70    318.0    246.4       94     0.000     0.000     0.000     0.000      107        0       42       25       10        4        5    16.158       70     40.2    6.498   -9.900     1.41    0.000    0.000       27        8     2006  Maize_short_Chisinau_7May_NonOptimum_85_MPI.PRM
  Tot(27)        7        5     2007    144.6    648.6   1473.6   383.77      0.0    144.1      0.5      0.0      0.0    103.1       31    250.0    199.0       78     0.000     0.000     0.000     0.000      107        0       42       25        2       20       16    11.151       47     40.1    4.473   -9.900     1.27    0.000    0.000       27        8     2007  Maize_short_Chisinau_7May_NonOptimum_85_MPI.PRM
  Tot(28)        7        5     2008    177.3    560.5   1291.6   385.59      0.0    172.8      4.5      0.0      0.0     88.5       38    300.9    233.9       88     0.000     0.000     0.000     0.000      107        0       42       25        6       10        9    15.116       64     40.2    6.082   -9.900     1.56    0.000    0.000       27        8     2008  Maize_short_Chisinau_7May_NonOptimum_85_MPI.PRM
  Tot(29)        7        5     2009    161.5    583.3   1333.2   387.37      0.0    160.0      1.5      0.0      0.0     86.6       33    293.0    228.8       86     0.000     0.000     0.000     0.000      107        0       42       25        6       10       11    14.287       61     39.9    5.698   -9.900     1.50    0.000    0.000       27        8     2009  Maize_short_Chisinau_7May_NonOptimum_85_MPI.PRM
  Tot(30)        7        5     2010    248.4    518.6   1414.0   389.85      0.0    235.0     13.4      0.2      0.0    121.5       59    315.2    243.3       96     0.000     0.000     0.000     0.000      107        0       42       25        7        1        3    16.950       72     40.0    6.776   -9.900     1.55    0.000    0.000       27        8     2010  Maize_short_Chisinau_7May_NonOptimum_85_MPI.PRM
  Tot(31)        7        5     2011    234.3    546.6   1320.9   391.63      0.0    220.0     14.3      7.4      0.0    112.6       48    306.3    237.6       95     0.000     0.000     0.000     0.000      107        0       42       25        6        2        4    16.151       71     40.0    6.458   -9.900     1.54    0.000    0.000       27        8     2011  Maize_short_Chisinau_7May_NonOptimum_85_MPI.PRM
  Tot(32)        7        5     2012    192.6    618.6   1442.0   393.82      0.0    189.8      2.8      1.7      0.0    129.4       45    271.7    214.9       80     0.000     0.000     0.000     0.000      107        0       42       25        6       19       15    12.345       52     40.0    4.941   -9.900     1.23    0.000    0.000       27        8     2012  Maize_short_Chisinau_7May_NonOptimum_85_MPI.PRM
  Tot(33)        7        5     2013    286.6    541.7   1380.1   396.48      0.0    259.3     27.3      1.1      0.0    118.5       54    322.6    250.5       94     0.000     0.000     0.000     0.000      107        0       42       25        4        2        4    16.955       71     39.9    6.770   -9.900     1.53    0.000    0.000       27        8     2013  Maize_short_Chisinau_7May_NonOptimum_85_MPI.PRM
  Tot(34)        7        5     2014    244.6    539.8   1326.2   398.55      0.0    239.3      5.3      8.4      0.0    121.7       59    306.3    236.1       90     0.000     0.000     0.000     0.000      107        0       42       25        7        6        8    15.565       66     40.0    6.224   -9.900     1.45    0.000    0.000       27        8     2014  Maize_short_Chisinau_7May_NonOptimum_85_MPI.PRM
  Tot(35)        7        5     2015    123.0    600.5   1355.8   402.00      0.0    122.8      0.2      0.3      0.0     77.9       29    262.6    207.0       79     0.000     0.000     0.000     0.000      107        0       42       25        6       10       16    12.620       54     39.5    4.982   -9.900     1.46    0.000    0.000       27        8     2015  Maize_short_Chisinau_7May_NonOptimum_85_MPI.PRM
  Tot(36)        7        5     2016    255.7    540.8   1325.7   404.00      0.0    238.9     16.8     33.2      0.0    141.5       73    285.0    221.1       81     0.000     0.000     0.000     0.000      107        0       42       25       10        5       15    13.877       58     39.7    5.508   -9.900     1.29    0.000    0.000       27        8     2016  Maize_short_Chisinau_7May_NonOptimum_85_MPI.PRM
  Tot(37)        7        5     2017    299.1    552.7   1316.4   407.00      0.0    280.2     18.9     14.6      0.0    112.9       53    345.5    266.0       98     0.000     0.000     0.000     0.000      107        0       42       25        9        2        1    17.478       74     40.1    7.003   -9.900     1.53    0.000    0.000       27        8     2017  Maize_short_Chisinau_7May_NonOptimum_85_MPI.PRM
  Tot(38)        7        5     2018    279.9    546.1   1430.7   410.00      0.0    265.8     14.1      6.4      0.0    100.9       42    319.4    247.0      100     0.000     0.000     0.000     0.000      107        0       42       25        5        2        0    17.641       74     40.0    7.057   -9.900     1.68    0.000    0.000       27        8     2018  Maize_short_Chisinau_7May_NonOptimum_85_MPI.PRM
  Tot(39)        7        5     2019    233.9    552.0   1390.8   413.00      0.0    225.8      8.1     15.5      0.0    132.2       61    296.4    232.9       87     0.000     0.000     0.000     0.000      107        0       42       25        3        9       10    15.185       64     40.1    6.096   -9.900     1.42    0.000    0.000       27        8     2019  Maize_short_Chisinau_7May_NonOptimum_85_MPI.PRM
  Tot(40)        7        5     2020    132.1    511.8   1188.6   416.00      0.0    129.3      2.8     11.5      0.0     92.7       48    245.4    191.7       79     0.000     0.000     0.000     0.000      107        0       42       25       13       12       15    12.869       56     40.0    5.143   -9.900     1.52    0.000    0.000       27        8     2020  Maize_short_Chisinau_7May_NonOptimum_85_MPI.PRM
  Tot(41)        7        5     2021    161.4    473.4   1065.1   419.00      0.0    158.2      3.2      0.3      0.0     84.4       40    252.9    193.3      100     0.000     0.000     0.000     0.000      107        0       42       25       17        2        0    15.184       74     40.0    6.077   -9.900     1.80    0.000    0.000       27        8     2021  Maize_short_Chisinau_7May_NonOptimum_85_MPI.PRM
  Tot(42)        7        5     2022    183.7    501.6   1217.9   422.00      0.0    169.3     14.4     14.8      0.0    105.8       50    260.7    203.1       91     0.000     0.000     0.000     0.000      107        0       42       25       12        2        7    15.196       68     39.9    6.065   -9.900     1.66    0.000    0.000       27        8     2022  Maize_short_Chisinau_7May_NonOptimum_85_MPI.PRM
  Tot(43)        7        5     2023    280.6    458.4   1081.9   425.00      0.0    234.2     46.4      0.0      0.0     92.1       44    248.0    192.4       99     0.000     0.000     0.000     0.000      107        0       42       25       23       19        0    15.542       72     40.8    6.339   -9.900     1.86    0.000    0.000       27        8     2023  Maize_short_Chisinau_7May_NonOptimum_85_MPI.PRM
  Tot(44)        7        5     2024    127.1    485.0   1090.3   428.00      0.0    127.1      0.0      0.0      0.0     97.9       48    233.2    183.2       87     0.000     0.000     0.000     0.000      107        0       42       25       16        8        9    13.448       62     40.0    5.386   -9.900     1.63    0.000    0.000       27        8     2024  Maize_short_Chisinau_7May_NonOptimum_85_MPI.PRM
  Tot(45)        7        5     2025     94.1    526.9   1198.0   431.00      0.0     93.6      0.5      0.0      0.0     73.1       30    230.5    182.4       81     0.000     0.000     0.000     0.000      107        0       42       25       16       21       13    12.417       54     40.4    5.016   -9.900     1.65    0.000    0.000       27        8     2025  Maize_short_Chisinau_7May_NonOptimum_85_MPI.PRM
  Tot(46)        7        5     2026    226.5    529.2   1275.2   435.00      0.0    213.4     13.1      0.5      0.0     90.1       35    282.8    219.1      100     0.000     0.000     0.000     0.000      107        0       42       25       11        6        0    16.890       73     40.2    6.794   -9.900     1.82    0.000    0.000       27        8     2026  Maize_short_Chisinau_7May_NonOptimum_85_MPI.PRM
  Tot(47)        7        5     2027    233.4    434.3   1063.2   438.00      0.0    222.5     10.9     30.7      0.0     86.8       50    254.3    196.3      100     0.000     0.000     0.000     0.000      107        0       42       25       17        2        0    16.329       75     40.0    6.539   -9.900     1.92    0.000    0.000       27        8     2027  Maize_short_Chisinau_7May_NonOptimum_85_MPI.PRM
  Tot(48)        7        5     2028    168.6    474.8   1095.1   442.00      0.0    167.2      1.4      0.0      0.0    102.2       59    271.5    211.4       92     0.000     0.000     0.000     0.000      107        0       42       25       17        2        6    15.917       69     40.0    6.365   -9.900     1.70    0.000    0.000       27        8     2028  Maize_short_Chisinau_7May_NonOptimum_85_MPI.PRM
  Tot(49)        7        5     2029    293.0    407.4   1103.6   445.00      0.0    264.4     28.6     21.0      0.0     86.0       50    234.0    181.7      100     0.000     0.000     0.000     0.000      107        0       42       25       14        1        0    17.107       75     40.0    6.843   -9.900     2.14    0.000    0.000       27        8     2029  Maize_short_Chisinau_7May_NonOptimum_85_MPI.PRM
  Tot(50)        7        5     2030    153.8    462.7   1008.0   449.00      0.0    150.8      3.0      0.0      0.0     82.9       45    238.9    184.7       94     0.000     0.000     0.000     0.000      107        0       42       25       22        8        4    14.353       69     40.4    5.792   -9.900     1.80    0.000    0.000       27        8     2030  Maize_short_Chisinau_7May_NonOptimum_85_MPI.PRM
  Tot(51)        7        5     2031    288.9    409.7   1058.4   452.00      0.0    260.9     28.0     64.8      0.0    101.6       60    225.8    174.8      100     0.000     0.000     0.000     0.000      107        0       42       25       18        1        0    15.909       75     40.0    6.364   -9.900     1.94    0.000    0.000       27        8     2031  Maize_short_Chisinau_7May_NonOptimum_85_MPI.PRM
  Tot(52)        7        5     2032    136.0    544.9   1194.4   456.00      0.0    132.5      3.5      2.8      0.0     83.1       40    264.1    205.5       82     0.000     0.000     0.000     0.000      107        0       42       25       15        7       13    13.522       58     39.9    5.399   -9.900     1.55    0.000    0.000       27        8     2032  Maize_short_Chisinau_7May_NonOptimum_85_MPI.PRM
  Tot(53)        7        5     2033    263.8    473.2   1082.3   460.00      0.0    245.0     18.8     61.6      0.0    107.5       63    276.7    214.3       95     0.000     0.000     0.000     0.000      107        0       42       25       17        4        4    16.252       71     40.2    6.530   -9.900     1.70    0.000    0.000       27        8     2033  Maize_short_Chisinau_7May_NonOptimum_85_MPI.PRM
  Tot(54)        7        5     2034    176.1    532.8   1289.1   464.00      0.0    174.8      1.3      2.1      0.0    103.1       47    278.3    218.6       88     0.000     0.000     0.000     0.000      107        0       42       25        8       15        8    14.891       62     40.2    5.990   -9.900     1.57    0.000    0.000       27        8     2034  Maize_short_Chisinau_7May_NonOptimum_85_MPI.PRM
  Tot(55)        7        5     2035    161.6    519.4   1118.3   468.00      0.0    153.3      8.3     26.6      0.0    124.9       56    219.4    172.5       81     0.000     0.000     0.000     0.000      104        0       42       25       19       18       19    11.236       48     39.9    4.482   -9.900     1.30    0.000    0.000       27        8     2035  Maize_short_Chisinau_7May_NonOptimum_85_MPI.PRM
  Tot(56)        7        5     2036    127.9    612.0   1275.8   472.00      0.0    127.0      0.9      3.0      0.0    116.0       41    228.8    180.2       74     0.000     0.000     0.000     0.000      106        0       42       25       14       20       23    10.763       45     39.1    4.212   -9.900     1.22    0.000    0.000       27        8     2036  Maize_short_Chisinau_7May_NonOptimum_85_MPI.PRM
  Tot(57)        7        5     2037    184.4    467.8   1137.9   476.00      0.0    181.2      3.2      0.0      0.0    113.8       64    266.9    205.7       94     0.000     0.000     0.000     0.000      107        0       42       25       16        1        4    16.588       71     40.0    6.631   -9.900     1.74    0.000    0.000       27        8     2037  Maize_short_Chisinau_7May_NonOptimum_85_MPI.PRM
  Tot(58)        7        5     2038    118.6    570.1   1225.7   481.00      0.0    118.5      0.1      0.0      0.0     98.3       40    239.0    185.9       77     0.000     0.000     0.000     0.000      107        0       42       25       14       11       15    12.492       55     40.0    4.994   -9.900     1.48    0.000    0.000       27        8     2038  Maize_short_Chisinau_7May_NonOptimum_85_MPI.PRM
  Tot(59)        7        5     2039    211.6    467.4   1227.9   485.00      0.0    205.0      6.6      1.6      0.0    101.5       54    276.8    213.4      100     0.000     0.000     0.000     0.000      107        0       42       25        7        5        0    17.590       75     40.1    7.050   -9.900     1.86    0.000    0.000       27        8     2039  Maize_short_Chisinau_7May_NonOptimum_85_MPI.PRM
  Tot(60)        7        5     2040    259.6    412.7   1041.0   489.00      0.0    243.9     15.7     49.4      0.0    111.0       74    246.0    190.1      100     0.000     0.000     0.000     0.000      107        0       42       25       21        0        0    16.628       75     40.0    6.652   -9.900     1.86    0.000    0.000       27        8     2040  Maize_short_Chisinau_7May_NonOptimum_85_MPI.PRM
  Tot(61)        7        5     2041    239.1    537.8   1230.4   494.00      0.0    195.2     43.9      0.0      0.0     84.9       36    265.5    208.5       88     0.000     0.000     0.000     0.000      107        0       42       25       11       10        8    14.615       63     39.9    5.832   -9.900     1.66    0.000    0.000       27        8     2041  Maize_short_Chisinau_7May_NonOptimum_85_MPI.PRM
  Tot(62)        7        5     2042    229.6    487.4   1174.2   499.00      0.0    215.2     14.4      0.2      0.0     99.2       43    256.6    198.5      100     0.000     0.000     0.000     0.000      107        0       42       25       12        8        0    17.002       73     40.1    6.815   -9.900     1.92    0.000    0.000       27        8     2042  Maize_short_Chisinau_7May_NonOptimum_85_MPI.PRM
  Tot(63)        7        5     2043    193.6    466.6   1201.4   504.00      0.0    191.8      1.8      3.8      0.0    107.2       68    284.7    220.8       93     0.000     0.000     0.000     0.000      107        0       42       25       13        5        5    16.743       69     40.2    6.734   -9.900     1.72    0.000    0.000       27        8     2043  Maize_short_Chisinau_7May_NonOptimum_85_MPI.PRM
  Tot(64)        7        5     2044    159.4    500.4   1177.6   508.00      0.0    155.8      3.6     13.5      0.0     91.9       52    267.6    208.5       86     0.000     0.000     0.000     0.000      107        0       42       25       15        5       11    14.919       63     39.9    5.954   -9.900     1.66    0.000    0.000       27        8     2044  Maize_short_Chisinau_7May_NonOptimum_85_MPI.PRM
  Tot(65)        7        5     2045    176.6    528.4   1242.4   513.00      0.0    172.7      3.9     18.0      0.0    112.5       50    249.7    196.3       84     0.000     0.000     0.000     0.000      107        0       42       25       12       16       12    14.037       58     40.5    5.683   -9.900     1.57    0.000    0.000       27        8     2045  Maize_short_Chisinau_7May_NonOptimum_85_MPI.PRM
  Tot(66)        7        5     2046    267.6    443.6   1175.6   519.00      0.0    256.9     10.7     17.8      0.0    113.8       67    268.0    206.1      100     0.000     0.000     0.000     0.000      107        0       42       25       14        0        0    17.672       75     40.0    7.069   -9.900     1.85    0.000    0.000       27        8     2046  Maize_short_Chisinau_7May_NonOptimum_85_MPI.PRM
  Tot(67)        7        5     2047    258.3    447.7   1133.5   524.00      0.0    254.6      3.7      1.4      0.0    111.3       61    261.1    203.2      100     0.000     0.000     0.000     0.000      107        0       42       25       13       13        0    16.824       74     40.7    6.841   -9.900     1.84    0.000    0.000       27        8     2047  Maize_short_Chisinau_7May_NonOptimum_85_MPI.PRM
  Tot(68)        7        5     2048    120.7    558.0   1318.5   529.00      0.0    120.1      0.6      0.0      0.0    112.7       44    215.4    169.9       79     0.000     0.000     0.000     0.000      103        0       42       25       10       12       18    11.165       46     39.7    4.435   -9.900     1.36    0.000    0.000       27        8     2048  Maize_short_Chisinau_7May_NonOptimum_85_MPI.PRM
  Tot(69)        7        5     2049    188.4    519.5   1212.5   535.00      0.0    184.1      4.3      0.0      0.0     89.0       44    289.8    222.5       96     0.000     0.000     0.000     0.000      107        0       42       25       12        4        3    16.584       72     40.2    6.661   -9.900     1.76    0.000    0.000       27        8     2049  Maize_short_Chisinau_7May_NonOptimum_85_MPI.PRM
  Tot(70)        7        5     2050    154.0    485.5   1207.7   541.00      0.0    150.9      3.1      9.9      0.0     92.5       43    250.3    194.5       95     0.000     0.000     0.000     0.000      107        0       42       25       12        5        3    16.783       71     40.2    6.744   -9.900     1.97    0.000    0.000       27        8     2050  Maize_short_Chisinau_7May_NonOptimum_85_MPI.PRM
  Tot(71)        7        5     2051    225.1    492.8   1154.3   546.00      0.0    219.4      5.7      6.7      0.0    108.9       58    289.9    223.4       98     0.000     0.000     0.000     0.000      107        0       42       25       13        1        1    17.276       73     40.0    6.913   -9.900     1.73    0.000    0.000       27        8     2051  Maize_short_Chisinau_7May_NonOptimum_85_MPI.PRM
  Tot(72)        7        5     2052    118.4    521.5   1214.5   552.00      0.0    118.2      0.2      0.0      0.0     90.0       43    247.5    193.0       84     0.000     0.000     0.000     0.000      107        0       42       25       11        4        9    14.683       64     39.8    5.850   -9.900     1.73    0.000    0.000       27        8     2052  Maize_short_Chisinau_7May_NonOptimum_85_MPI.PRM
  Tot(73)        7        5     2053    123.5    564.3   1353.2   558.00      0.0    123.4      0.1      0.0      0.0     82.9       33    257.4    201.7       83     0.000     0.000     0.000     0.000      107        0       42       25        7       11       12    13.908       58     39.9    5.555   -9.900     1.63    0.000    0.000       27        8     2053  Maize_short_Chisinau_7May_NonOptimum_85_MPI.PRM
  Tot(74)        7        5     2054    149.4    558.7   1272.7   564.00      0.0    133.7     15.7     27.0      0.0    104.9       41    217.3    171.6       79     0.000     0.000     0.000     0.000      103        0       42       25       12       18       19    11.457       46     39.7    4.551   -9.900     1.42    0.000    0.000       27        8     2054  Maize_short_Chisinau_7May_NonOptimum_85_MPI.PRM
  Tot(75)        7        5     2055    148.1    485.8   1176.4   571.00      0.0    143.1      5.0     10.0      0.0     92.2       51    253.1    195.3       88     0.000     0.000     0.000     0.000      107        0       42       25       15        6        8    15.521       66     40.2    6.233   -9.900     1.81    0.000    0.000       27        8     2055  Maize_short_Chisinau_7May_NonOptimum_85_MPI.PRM
  Tot(76)        7        5     2056     86.5    562.6   1301.8   577.00      0.0     86.5      0.0      0.0      0.0     74.8       29    235.2    185.6       79     0.000     0.000     0.000     0.000      107        0       42       25        6       16       15    13.384       55     39.9    5.336   -9.900     1.72    0.000    0.000       27        8     2056  Maize_short_Chisinau_7May_NonOptimum_85_MPI.PRM
  Tot(77)        7        5     2057    121.9    571.8   1284.2   583.00      0.0    121.4      0.5      0.0      0.0     86.5       36    235.1    182.4       77     0.000     0.000     0.000     0.000      107        0       42       25       10       10       15    12.867       54     39.7    5.103   -9.900     1.59    0.000    0.000       27        8     2057  Maize_short_Chisinau_7May_NonOptimum_85_MPI.PRM
  Tot(78)        7        5     2058    300.0    437.0   1151.5   590.00      0.0    281.3     18.7     12.0      0.0     96.0       56    254.9    197.3      100     0.000     0.000     0.000     0.000      107        0       42       25       17        1        0    17.386       75     40.1    6.970   -9.900     1.99    0.000    0.000       27        8     2058  Maize_short_Chisinau_7May_NonOptimum_85_MPI.PRM
  Tot(79)        7        5     2059    143.7    567.5   1326.2   597.00      0.0    142.6      1.1      0.9      0.0    112.4       54    253.8    197.5       78     0.000     0.000     0.000     0.000      107        0       42       25       12        4       18    13.497       55     39.0    5.268   -9.900     1.44    0.000    0.000       27        8     2059  Maize_short_Chisinau_7May_NonOptimum_85_MPI.PRM
  Tot(80)        7        5     2060    151.6    537.0   1217.9   604.00      0.0    144.5      7.1      0.0      0.0     78.2       34    272.9    211.8       93     0.000     0.000     0.000     0.000      107        0       42       25       11        9        5    15.789       67     40.1    6.327   -9.900     1.80    0.000    0.000       27        8     2060  Maize_short_Chisinau_7May_NonOptimum_85_MPI.PRM
  Tot(81)        7        5     2061    219.1    459.8   1105.2   611.00      0.0    214.8      4.3     10.7      0.0    119.1       73    268.4    205.6       98     0.000     0.000     0.000     0.000      107        0       42       25       18        1        1    16.834       74     40.0    6.741   -9.900     1.74    0.000    0.000       27        8     2061  Maize_short_Chisinau_7May_NonOptimum_85_MPI.PRM
  Tot(82)        7        5     2062    107.9    520.4   1272.3   618.00      0.0    107.9      0.0      0.0      0.0     78.1       37    247.6    194.6       83     0.000     0.000     0.000     0.000      107        0       42       25        8        6       12    15.056       61     39.7    5.974   -9.900     1.83    0.000    0.000       27        8     2062  Maize_short_Chisinau_7May_NonOptimum_85_MPI.PRM
  Tot(83)        7        5     2063    216.5    528.2   1314.4   625.00      0.0    206.1     10.4     22.8      0.0    104.2       46    268.7    208.0       90     0.000     0.000     0.000     0.000      107        0       42       25        8        9        6    16.596       67     39.8    6.607   -9.900     1.77    0.000    0.000       27        8     2063  Maize_short_Chisinau_7May_NonOptimum_85_MPI.PRM
  Tot(84)        7        5     2064    192.0    523.4   1363.9   632.00      0.0    190.7      1.3      0.0      0.0     98.2       48    284.8    222.7       91     0.000     0.000     0.000     0.000      107        0       42       25        7        4        6    17.002       69     39.9    6.790   -9.900     1.77    0.000    0.000       27        8     2064  Maize_short_Chisinau_7May_NonOptimum_85_MPI.PRM
  Tot(85)        7        5     2065    194.4    499.3   1233.2   639.00      0.0    185.6      8.8      0.0      0.0     84.1       41    278.0    213.6       98     0.000     0.000     0.000     0.000      107        0       42       25        9        3        1    17.362       73     40.0    6.944   -9.900     1.92    0.000    0.000       27        8     2065  Maize_short_Chisinau_7May_NonOptimum_85_MPI.PRM
  Tot(86)        7        5     2066    129.8    652.7   1468.6   647.00      0.0    128.8      1.0      0.0      0.0     95.2       30    233.4    186.2       76     0.000     0.000     0.000     0.000      107        0       42       25        6       19       16    11.511       46     39.5    4.550   -9.900     1.38    0.000    0.000       27        8     2066  Maize_short_Chisinau_7May_NonOptimum_85_MPI.PRM
  Tot(87)        7        5     2067    163.6    521.9   1250.2   654.00      0.0    161.9      1.7      0.2      0.0     76.1       33    277.0    214.7       99     0.000     0.000     0.000     0.000      107        0       42       25       11        6        1    17.219       73     40.2    6.925   -9.900     1.96    0.000    0.000       27        8     2067  Maize_short_Chisinau_7May_NonOptimum_85_MPI.PRM
  Tot(88)        7        5     2068    183.2    534.1   1324.1   662.00      0.0    179.9      3.3      3.0      0.0    114.0       54    254.1    197.5       83     0.000     0.000     0.000     0.000      107        0       42       25        8       12       12    14.406       59     39.9    5.754   -9.900     1.56    0.000    0.000       27        8     2068  Maize_short_Chisinau_7May_NonOptimum_85_MPI.PRM
  Tot(89)        7        5     2069    247.7    506.1   1314.0   669.00      0.0    239.7      8.0      0.8      0.0    108.2       49    274.9    214.9       99     0.000     0.000     0.000     0.000      107        0       42       25        7       19        0    17.223       71     40.9    7.042   -9.900     1.84    0.000    0.000       27        8     2069  Maize_short_Chisinau_7May_NonOptimum_85_MPI.PRM
  Tot(90)        7        5     2070     40.8    613.4   1358.0   677.00      0.0     40.8      0.0      0.6      0.0     66.2       21    187.2    149.4       75     0.000     0.000     0.000     0.000       96        0       42       25       13       22       20     9.550       39     33.0    3.147   -9.900     1.25    0.000    0.000       27        8     2070  Maize_short_Chisinau_7May_NonOptimum_85_MPI.PRM
  Tot(91)        7        5     2071    118.5    572.0   1412.9   685.00      0.0    118.3      0.2      0.0      0.0    102.1       41    236.4    183.9       81     0.000     0.000     0.000     0.000      107        0       42       25        5        8       15    13.645       56     39.8    5.429   -9.900     1.60    0.000    0.000       27        8     2071  Maize_short_Chisinau_7May_NonOptimum_85_MPI.PRM
  Tot(92)        7        5     2072    125.7    658.3   1429.5   693.00      0.0    121.2      4.5      6.6      0.0    101.8       28    193.3    154.1       75     0.000     0.000     0.000     0.000       94        0       42       25        7       25       20     9.260       37     31.0    2.875   -9.900     1.03    0.000    0.000       27        8     2072  Maize_short_Chisinau_7May_NonOptimum_85_MPI.PRM
  Tot(93)        7        5     2073    239.9    417.7   1131.4   701.00      0.0    211.7     28.2     34.6      0.0     98.1       68    247.1    188.6      100     0.000     0.000     0.000     0.000      107        0       42       25       14        2        0    17.286       75     40.1    6.928   -9.900     2.01    0.000    0.000       27        8     2073  Maize_short_Chisinau_7May_NonOptimum_85_MPI.PRM
  Tot(94)        7        5     2074    272.6    456.3   1210.9   709.00      0.0    248.0     24.6      6.3      0.0     96.7       49    244.3    189.4      100     0.000     0.000     0.000     0.000      107        0       42       25       11        1        0    17.738       75     40.0    7.096   -9.900     2.08    0.000    0.000       27        8     2074  Maize_short_Chisinau_7May_NonOptimum_85_MPI.PRM
  Tot(95)        7        5     2075    191.6    522.4   1363.2   717.00      0.0    179.9     11.7     30.0      0.0    104.4       54    264.7    206.2       86     0.000     0.000     0.000     0.000      107        0       42       25        7        1        9    16.043       65     39.7    6.373   -9.900     1.73    0.000    0.000       27        8     2075  Maize_short_Chisinau_7May_NonOptimum_85_MPI.PRM
  Tot(96)        7        5     2076    144.6    587.3   1436.3   725.00      0.0    139.5      5.1      0.0      0.0     93.1       36    225.1    177.1       76     0.000     0.000     0.000     0.000      107        0       42       25       11       19       18    12.033       49     39.8    4.789   -9.900     1.50    0.000    0.000       27        8     2076  Maize_short_Chisinau_7May_NonOptimum_85_MPI.PRM
  Tot(97)        7        5     2077    138.6    548.9   1410.9   733.00      0.0    138.6      0.0      0.0      0.0     99.5       45    256.8    200.5       84     0.000     0.000     0.000     0.000      107        0       42       25        5        8       12    14.939       60     39.9    5.956   -9.900     1.67    0.000    0.000       27        8     2077  Maize_short_Chisinau_7May_NonOptimum_85_MPI.PRM
  Tot(98)        7        5     2078    208.5    512.7   1377.0   742.00      0.0    200.7      7.8     21.4      0.0     83.0       41    283.1    218.7       97     0.000     0.000     0.000     0.000      107        0       42       25        5        2        2    17.811       73     40.0    7.124   -9.900     1.95    0.000    0.000       27        8     2078  Maize_short_Chisinau_7May_NonOptimum_85_MPI.PRM
  Tot(99)        7        5     2079    158.8    510.0   1209.4   750.00      0.0    149.8      9.0      0.0      0.0     81.9       39    269.2    209.1       95     0.000     0.000     0.000     0.000      107        0       42       25       12        5        3    17.011       71     40.1    6.819   -9.900     1.94    0.000    0.000       27        8     2079  Maize_short_Chisinau_7May_NonOptimum_85_MPI.PRM
 Tot(100)        7        5     2080    141.6    565.2   1406.4   758.00      0.0    139.0      2.6      1.5      0.0     85.4       35    265.3    208.2       87     0.000     0.000     0.000     0.000      107        0       42       25        6       17        9    15.185       62     40.5    6.149   -9.900     1.75    0.000    0.000       27        8     2080  Maize_short_Chisinau_7May_NonOptimum_85_MPI.PRM
 Tot(101)        7        5     2081    204.7    490.9   1283.8   767.00      0.0    199.1      5.6      6.8      0.0    103.6       53    273.5    211.1       99     0.000     0.000     0.000     0.000      107        0       42       25        8        4        1    17.576       73     40.0    7.033   -9.900     1.87    0.000    0.000       27        8     2081  Maize_short_Chisinau_7May_NonOptimum_85_MPI.PRM
 Tot(102)        7        5     2082    103.7    612.3   1461.7   775.00      0.0     99.5      4.2     16.6      0.0     94.1       31    204.3    162.8       78     0.000     0.000     0.000     0.000       99        0       42       25        7       20       19    10.557       43     35.8    3.783   -9.900     1.27    0.000    0.000       27        8     2082  Maize_short_Chisinau_7May_NonOptimum_85_MPI.PRM
 Tot(103)        7        5     2083    150.6    552.7   1455.0   784.00      0.0    146.2      4.4      4.2      0.0     91.0       43    270.3    208.8       86     0.000     0.000     0.000     0.000      107        0       42       25        6        2       11    15.654       64     39.7    6.214   -9.900     1.72    0.000    0.000       27        8     2083  Maize_short_Chisinau_7May_NonOptimum_85_MPI.PRM
 Tot(104)        7        5     2084    164.1    485.5   1381.0   792.00      0.0    163.3      0.8      2.0      0.0    101.9       48    247.5    190.7       97     0.000     0.000     0.000     0.000      107        0       42       25        5        3        2    17.500       73     40.1    7.019   -9.900     2.01    0.000    0.000       27        8     2084  Maize_short_Chisinau_7May_NonOptimum_85_MPI.PRM
 Tot(105)        7        5     2085    132.2    597.5   1394.0   801.00      0.0    126.8      5.4      3.4      0.0     85.6       36    261.0    204.0       81     0.000     0.000     0.000     0.000      107        0       42       25        6        4       14    14.080       58     39.4    5.545   -9.900     1.60    0.000    0.000       27        8     2085  Maize_short_Chisinau_7May_NonOptimum_85_MPI.PRM
 Tot(106)        7        5     2086    190.2    570.1   1422.8   810.00      0.0    180.0     10.2     20.6      0.0     96.4       46    282.7    219.2       85     0.000     0.000     0.000     0.000      107        0       42       25        4        7       11    15.451       63     40.1    6.198   -9.900     1.64    0.000    0.000       27        8     2086  Maize_short_Chisinau_7May_NonOptimum_85_MPI.PRM
 Tot(107)        7        5     2087    159.5    524.2   1335.1   818.00      0.0    151.5      8.0      1.8      0.0    114.2       51    221.3    172.2       82     0.000     0.000     0.000     0.000      107        0       42       25        9       13       11    13.522       56     40.3    5.452   -9.900     1.63    0.000    0.000       27        8     2087  Maize_short_Chisinau_7May_NonOptimum_85_MPI.PRM
 Tot(108)        7        5     2088    215.0    564.9   1432.3   827.00      0.0    191.5     23.5     45.5      0.0     90.0       37    267.4    208.3       89     0.000     0.000     0.000     0.000      107        0       42       25        2        6        9    15.454       64     39.9    6.169   -9.900     1.73    0.000    0.000       27        8     2088  Maize_short_Chisinau_7May_NonOptimum_85_MPI.PRM
 Tot(109)        7        5     2089    226.8    503.1   1327.6   836.00      0.0    215.9     10.9     25.4      0.0     98.3       53    282.5    217.1       98     0.000     0.000     0.000     0.000      107        0       42       25        8        1        1    17.421       74     40.0    6.976   -9.900     1.83    0.000    0.000       27        8     2089  Maize_short_Chisinau_7May_NonOptimum_85_MPI.PRM
 Tot(110)        7        5     2090     67.0    602.5   1355.9   845.00      0.0     67.0      0.0      0.0      0.0     77.7       26    190.6    151.9       76     0.000     0.000     0.000     0.000       95        0       42       25       13       21       19     9.274       38     32.2    2.982   -9.900     1.14    0.000    0.000       27        8     2090  Maize_short_Chisinau_7May_NonOptimum_85_MPI.PRM
 Tot(111)        7        5     2091    135.2    593.2   1487.6   854.00      0.0    133.1      2.1      0.0      0.0     86.3       32    232.3    180.5       81     0.000     0.000     0.000     0.000      107        0       42       25        3       10       12    13.068       54     39.7    5.187   -9.900     1.63    0.000    0.000       27        8     2091  Maize_short_Chisinau_7May_NonOptimum_85_MPI.PRM
 Tot(112)        7        5     2092    158.7    638.2   1517.2   863.00      0.0    142.5     16.2     38.2      0.0     99.4       36    223.2    176.1       76     0.000     0.000     0.000     0.000      102        0       42       25        4       15       20    11.070       46     38.2    4.228   -9.900     1.31    0.000    0.000       27        8     2092  Maize_short_Chisinau_7May_NonOptimum_85_MPI.PRM
 Tot(113)        7        5     2093    169.2    543.3   1423.2   872.00      0.0    158.3     10.9     13.8      0.0     88.6       43    268.0    206.6       89     0.000     0.000     0.000     0.000      107        0       42       25        3        3        8    16.172       67     39.9    6.449   -9.900     1.81    0.000    0.000       27        8     2093  Maize_short_Chisinau_7May_NonOptimum_85_MPI.PRM
 Tot(114)        7        5     2094    170.4    507.9   1352.7   881.00      0.0    163.5      6.9      3.6      0.0     96.5       47    238.3    185.0       87     0.000     0.000     0.000     0.000      107        0       42       25        7        8        8    14.985       63     40.1    6.015   -9.900     1.80    0.000    0.000       27        8     2094  Maize_short_Chisinau_7May_NonOptimum_85_MPI.PRM
 Tot(115)        7        5     2095     62.7    665.0   1579.0   890.00      0.0     62.7      0.0      0.0      0.0     80.6       20    181.3    147.2       77     0.000     0.000     0.000     0.000      107        0       42       25        3       31       19     8.811       36     40.4    3.561   -9.900     1.36    0.000    0.000       27        8     2095  Maize_short_Chisinau_7May_NonOptimum_85_MPI.PRM
 Tot(116)        7        5     2096     82.0    716.5   1690.8   899.00      0.0     81.9      0.1      0.0      0.0     75.8       22    227.0    178.7       75     0.000     0.000     0.000     0.000      104        0       42       25        0       13       20    11.052       46     38.7    4.277   -9.900     1.41    0.000    0.000       27        8     2096  Maize_short_Chisinau_7May_NonOptimum_85_MPI.PRM
 Tot(117)        7        5     2097    267.8    502.6   1411.0   908.00      0.0    238.9     28.9      0.0      0.0     91.3       39    247.5    191.8      100     0.000     0.000     0.000     0.000      107        0       42       25        5        9        0    17.074       73     40.2    6.856   -9.900     2.02    0.000    0.000       27        8     2097  Maize_short_Chisinau_7May_NonOptimum_85_MPI.PRM
 Tot(118)        7        5     2098    173.0    515.4   1336.9   917.00      0.0    169.4      3.6      0.8      0.0     95.7       47    269.2    208.3       97     0.000     0.000     0.000     0.000      107        0       42       25        6        5        2    16.910       72     40.1    6.789   -9.900     1.86    0.000    0.000       27        8     2098  Maize_short_Chisinau_7May_NonOptimum_85_MPI.PRM
 Tot(119)        7        5     2099    132.8    589.5   1483.1   927.00      0.0    129.5      3.3     12.4      0.0    113.3       44    204.4    162.2       75     0.000     0.000     0.000     0.000      107        0       42       25        6       20       18    10.261       43     40.1    4.119   -9.900     1.30    0.000    0.000       27        8     2099  Maize_short_Chisinau_7May_NonOptimum_85_MPI.PRM
