AquaCrop 7.0 (August 2022) - Output created on (date) : 24-11-2022   at (time) : 10:30:32

    RunNr     Day1   Month1    Year1     Rain      ETo       GD     CO2      Irri   Infilt   Runoff    Drain   Upflow        E     E/Ex       Tr      TrW   Tr/Trx    SaltIn   SaltOut    SaltUp  SaltProf     Cycle   SaltStr  FertStr  WeedStr  TempStr   ExpStr   StoStr  BioMass  Brelative   HI    Y(dry)  Y(fresh)    WPet      Bin     Bout     DayN   MonthN    YearN
                                           mm       mm  degC.day    ppm        mm       mm       mm       mm       mm       mm        %       mm       mm        %    ton/ha    ton/ha    ton/ha    ton/ha      days       %        %        %        %        %        %    ton/ha        %       %    ton/ha   ton/ha    kg/m3   ton/ha   ton/ha
   Tot(1)        7        5     1981    330.3    462.9   1198.4   340.11      0.0    283.1     47.2     56.3      0.0    109.4       56    275.1    213.3      100     0.000     0.000     0.000     0.000      107        0       42       25       13        1        0    16.085       75     40.0    6.434   -9.900     1.67    0.000    0.000       27        8     1981  Maize_Short_Soroca_7May_NonOptimum_85_NCC.PRM
   Tot(2)        7        5     1982    276.4    461.1   1144.9   341.22      0.0    241.0     35.4     37.5      0.0     91.0       42    247.8    190.3      100     0.000     0.000     0.000     0.000      107        0       42       25       15        2        0    15.482       74     40.0    6.193   -9.900     1.83    0.000    0.000       27        8     1982  Maize_Short_Soroca_7May_NonOptimum_85_NCC.PRM
   Tot(3)        7        5     1983    225.7    446.3   1210.8   342.84      0.0    220.5      5.2      1.0      0.0     89.5       45    244.5    189.7      100     0.000     0.000     0.000     0.000      107        0       42       25        9        2        0    15.815       74     40.0    6.329   -9.900     1.90    0.000    0.000       27        8     1983  Maize_Short_Soroca_7May_NonOptimum_85_NCC.PRM
   Tot(4)        7        5     1984    347.7    420.8   1026.2   344.40      0.0    328.6     19.1     25.4      0.0    144.0       85    231.4    179.7      100     0.000     0.000     0.000     0.000      107        0       42       25       20        0        0    14.678       75     40.0    5.871   -9.900     1.56    0.000    0.000       27        8     1984  Maize_Short_Soroca_7May_NonOptimum_85_NCC.PRM
   Tot(5)        7        5     1985    364.9    454.7   1143.8   345.87      0.0    324.5     40.4     56.7      0.0    131.4       68    253.5    193.4      100     0.000     0.000     0.000     0.000      107        0       42       25       15        0        0    15.415       75     40.0    6.166   -9.900     1.60    0.000    0.000       27        8     1985  Maize_Short_Soroca_7May_NonOptimum_85_NCC.PRM
   Tot(6)        7        5     1986    164.7    525.3   1219.4   347.19      0.0    164.3      0.4      0.0      0.0     97.0       40    259.0    202.5       92     0.000     0.000     0.000     0.000      107        0       42       25       12        8        5    13.939       67     40.0    5.581   -9.900     1.57    0.000    0.000       27        8     1986  Maize_Short_Soroca_7May_NonOptimum_85_NCC.PRM
   Tot(7)        7        5     1987    273.7    465.1   1100.2   348.98      0.0    263.6     10.1     12.9      0.0    131.5       71    274.3    212.0      100     0.000     0.000     0.000     0.000      107        0       42       25       19        6        0    15.354       74     40.4    6.206   -9.900     1.53    0.000    0.000       27        8     1987  Maize_Short_Soroca_7May_NonOptimum_85_NCC.PRM
   Tot(8)        7        5     1988    304.7    440.0   1217.4   351.45      0.0    290.1     14.6     30.8      0.0    131.0       80    283.6    221.4      100     0.000     0.000     0.000     0.000      107        0       42       25       10        1        0    16.707       75     40.0    6.687   -9.900     1.61    0.000    0.000       27        8     1988  Maize_Short_Soroca_7May_NonOptimum_85_NCC.PRM
   Tot(9)        7        5     1989    282.2    464.6   1130.1   352.89      0.0    262.4     19.8     25.4      0.0    101.1       53    275.0    211.4      100     0.000     0.000     0.000     0.000      107        0       42       25       15        2        0    16.037       75     40.1    6.428   -9.900     1.71    0.000    0.000       27        8     1989  Maize_Short_Soroca_7May_NonOptimum_85_NCC.PRM
  Tot(10)        7        5     1990    185.9    477.8   1101.1   354.16      0.0    184.2      1.7      2.5      0.0    113.8       58    266.9    206.5       95     0.000     0.000     0.000     0.000      107        0       42       25       18        3        4    15.302       70     40.0    6.126   -9.900     1.61    0.000    0.000       27        8     1990  Maize_Short_Soroca_7May_NonOptimum_85_NCC.PRM
  Tot(11)        7        5     1991    456.1    412.7   1129.9   355.48      0.0    403.6     52.5     46.9      0.0    128.5       85    271.1    210.0      100     0.000     0.000     0.000     0.000      107        0       42       25       20        0        0    17.036       75     40.0    6.815   -9.900     1.71    0.000    0.000       27        8     1991  Maize_Short_Soroca_7May_NonOptimum_85_NCC.PRM
  Tot(12)        7        5     1992    184.4    507.5   1204.4   356.27      0.0    182.6      1.8      4.3      0.0    130.3       69    268.1    207.9       83     0.000     0.000     0.000     0.000      107        0       42       25       16        5       12    13.721       61     39.7    5.450   -9.900     1.37    0.000    0.000       27        8     1992  Maize_Short_Soroca_7May_NonOptimum_85_NCC.PRM
  Tot(13)        7        5     1993    225.5    480.7   1127.5   356.95      0.0    219.8      5.7      9.9      0.0    124.3       62    266.5    206.0       99     0.000     0.000     0.000     0.000      107        0       42       25       14        1        1    15.385       75     40.0    6.157   -9.900     1.58    0.000    0.000       27        8     1993  Maize_Short_Soroca_7May_NonOptimum_85_NCC.PRM
  Tot(14)        7        5     1994    261.0    521.2   1199.0   358.63      0.0    230.3     30.7     13.8      0.0    119.5       54    248.1    193.8       83     0.000     0.000     0.000     0.000      107        0       42       25       13        7       12    12.542       57     39.6    4.962   -9.900     1.35    0.000    0.000       27        8     1994  Maize_Short_Soroca_7May_NonOptimum_85_NCC.PRM
  Tot(15)        7        5     1995    305.1    494.6   1256.9   360.62      0.0    274.9     30.2     13.8      0.0    116.1       57    305.4    235.8      100     0.000     0.000     0.000     0.000      107        0       42       25        8        3        0    17.166       75     40.1    6.883   -9.900     1.63    0.000    0.000       27        8     1995  Maize_Short_Soroca_7May_NonOptimum_85_NCC.PRM
  Tot(16)        7        5     1996    285.8    501.1   1244.3   362.37      0.0    267.2     18.6      8.4      0.0     98.7       42    272.6    211.3      100     0.000     0.000     0.000     0.000      107        0       42       25       11        3        0    16.012       74     40.0    6.406   -9.900     1.73    0.000    0.000       27        8     1996  Maize_Short_Soroca_7May_NonOptimum_85_NCC.PRM
  Tot(17)        7        5     1997    299.6    455.8   1162.2   363.47      0.0    285.4     14.2      0.0      0.0    100.3       49    256.7    198.8      100     0.000     0.000     0.000     0.000      107        0       42       25       14        2        0    16.593       75     40.0    6.637   -9.900     1.86    0.000    0.000       27        8     1997  Maize_Short_Soroca_7May_NonOptimum_85_NCC.PRM
  Tot(18)        7        5     1998    308.7    445.2   1198.7   366.50      0.0    287.4     21.3      4.9      0.0    123.3       70    271.9    209.6      100     0.000     0.000     0.000     0.000      107        0       42       25       17        1        0    16.304       75     40.0    6.522   -9.900     1.65    0.000    0.000       27        8     1998  Maize_Short_Soroca_7May_NonOptimum_85_NCC.PRM
  Tot(19)        7        5     1999    155.2    512.9   1310.0   368.14      0.0    155.2      0.0      0.0      0.0     95.6       41    266.2    209.2       90     0.000     0.000     0.000     0.000      107        0       42       25       10       13        7    14.714       63     40.4    5.950   -9.900     1.64    0.000    0.000       27        8     1999  Maize_Short_Soroca_7May_NonOptimum_85_NCC.PRM
  Tot(20)        7        5     2000    240.2    521.6   1223.8   369.41      0.0    230.6      9.6      0.0      0.0     90.6       37    285.6    222.0      100     0.000     0.000     0.000     0.000      107        0       42       25       13        5        0    15.911       73     40.0    6.367   -9.900     1.69    0.000    0.000       27        8     2000  Maize_Short_Soroca_7May_NonOptimum_85_NCC.PRM
  Tot(21)        7        5     2001    255.6    491.7   1222.5   371.07      0.0    247.3      8.3     18.7      0.0    121.2       66    307.8    236.8       97     0.000     0.000     0.000     0.000      107        0       42       25       16        1        3    16.698       73     40.0    6.676   -9.900     1.56    0.000    0.000       27        8     2001  Maize_Short_Soroca_7May_NonOptimum_85_NCC.PRM
  Tot(22)        7        5     2002    365.4    509.4   1309.6   373.16      0.0    331.0     34.4      0.0      0.0    127.4       58    304.0    236.2       99     0.000     0.000     0.000     0.000      107        0       42       25       10       16        1    16.622       72     40.8    6.790   -9.900     1.57    0.000    0.000       27        8     2002  Maize_Short_Soroca_7May_NonOptimum_85_NCC.PRM
  Tot(23)        7        5     2003    329.8    556.2   1316.9   375.80      0.0    274.8     55.0      3.2      0.0     87.3       30    282.5    219.4      100     0.000     0.000     0.000     0.000      107        0       42       25        7        9        0    16.158       71     40.0    6.463   -9.900     1.75    0.000    0.000       27        8     2003  Maize_Short_Soroca_7May_NonOptimum_85_NCC.PRM
  Tot(24)        7        5     2004    239.4    487.9   1103.3   377.49      0.0    217.8     21.6      0.0      0.0     72.2       31    266.1    210.2      100     0.000     0.000     0.000     0.000      107        0       42       25       19       14        0    15.790       71     40.2    6.347   -9.900     1.88    0.000    0.000       27        8     2004  Maize_Short_Soroca_7May_NonOptimum_85_NCC.PRM
  Tot(25)        7        5     2005    262.5    469.1   1193.2   379.80      0.0    243.3     19.2     22.7      0.0    108.8       56    282.0    217.7      100     0.000     0.000     0.000     0.000      107        0       42       25       11        4        0    16.961       74     40.1    6.802   -9.900     1.74    0.000    0.000       27        8     2005  Maize_Short_Soroca_7May_NonOptimum_85_NCC.PRM
  Tot(26)        7        5     2006    315.6    495.5   1200.9   381.90      0.0    301.7     13.9     21.8      0.0    141.7       77    304.6    237.1       96     0.000     0.000     0.000     0.000      107        0       42       25       15        5        3    16.305       71     40.3    6.565   -9.900     1.47    0.000    0.000       27        8     2006  Maize_Short_Soroca_7May_NonOptimum_85_NCC.PRM
  Tot(27)        7        5     2007    152.4    612.6   1444.4   383.77      0.0    152.1      0.3      0.0      0.0    125.1       36    232.9    186.0       83     0.000     0.000     0.000     0.000      107        0       42       25        3       24       12    11.493       49     40.4    4.644   -9.900     1.30    0.000    0.000       27        8     2007  Maize_Short_Soroca_7May_NonOptimum_85_NCC.PRM
  Tot(28)        7        5     2008    341.8    530.8   1250.9   385.59      0.0    280.9     60.9      0.0      0.0    111.5       51    324.8    251.6       99     0.000     0.000     0.000     0.000      107        0       42       25        8       14        0    16.962       72     40.6    6.889   -9.900     1.58    0.000    0.000       27        8     2008  Maize_Short_Soroca_7May_NonOptimum_85_NCC.PRM
  Tot(29)        7        5     2009    220.9    551.9   1276.6   387.37      0.0    219.1      1.8      1.4      0.0    136.6       60    298.5    232.8       89     0.000     0.000     0.000     0.000      107        0       42       25       11        4       10    14.959       64     39.9    5.964   -9.900     1.37    0.000    0.000       27        8     2009  Maize_Short_Soroca_7May_NonOptimum_85_NCC.PRM
  Tot(30)        7        5     2010    341.4    489.0   1373.7   389.85      0.0    312.2     29.2     48.1      0.0    130.7       71    315.5    242.4       99     0.000     0.000     0.000     0.000      107        0       42       25        8        0        0    17.689       75     40.0    7.076   -9.900     1.59    0.000    0.000       27        8     2010  Maize_Short_Soroca_7May_NonOptimum_85_NCC.PRM
  Tot(31)        7        5     2011    187.9    543.3   1287.2   391.63      0.0    185.0      2.9      1.0      0.0     95.4       38    289.1    225.3       96     0.000     0.000     0.000     0.000      107        0       42       25        8        5        3    15.927       70     40.1    6.380   -9.900     1.66    0.000    0.000       27        8     2011  Maize_Short_Soroca_7May_NonOptimum_85_NCC.PRM
  Tot(32)        7        5     2012    144.1    600.6   1390.6   393.82      0.0    143.9      0.2      0.0      0.0    126.5       41    224.5    180.3       78     0.000     0.000     0.000     0.000      107        0       42       25        8       27       16    10.463       45     40.3    4.212   -9.900     1.20    0.000    0.000       27        8     2012  Maize_Short_Soroca_7May_NonOptimum_85_NCC.PRM
  Tot(33)        7        5     2013    224.9    523.6   1339.0   396.48      0.0    216.4      8.5     10.5      0.0    145.5       69    271.1    210.1       85     0.000     0.000     0.000     0.000      107        0       42       25        6        4       11    14.795       62     39.5    5.848   -9.900     1.40    0.000    0.000       27        8     2013  Maize_Short_Soroca_7May_NonOptimum_85_NCC.PRM
  Tot(34)        7        5     2014    310.9    505.5   1289.2   398.55      0.0    284.3     26.6     17.9      0.0    125.3       62    311.0    240.4      100     0.000     0.000     0.000     0.000      107        0       42       25        9        5        0    17.066       74     40.1    6.845   -9.900     1.57    0.000    0.000       27        8     2014  Maize_Short_Soroca_7May_NonOptimum_85_NCC.PRM
  Tot(35)        7        5     2015     53.8    613.9   1324.9   402.00      0.0     53.8      0.0      0.2      0.0     81.0       23    188.9    152.1       77     0.000     0.000     0.000     0.000       98        0       42       25        8       27       19     8.997       38     35.0    3.149   -9.900     1.17    0.000    0.000       27        8     2015  Maize_Short_Soroca_7May_NonOptimum_85_NCC.PRM
  Tot(36)        7        5     2016    260.0    524.9   1288.5   404.00      0.0    257.7      2.3      0.0      0.0    146.2       78    314.1    240.7       91     0.000     0.000     0.000     0.000      107        0       42       25       12        3        7    15.832       67     40.1    6.342   -9.900     1.38    0.000    0.000       27        8     2016  Maize_Short_Soroca_7May_NonOptimum_85_NCC.PRM
  Tot(37)        7        5     2017    198.7    557.0   1274.9   407.00      0.0    197.7      1.0      0.3      0.0    125.5       55    289.0    226.6       86     0.000     0.000     0.000     0.000      107        0       42       25       10        8       10    14.847       63     40.0    5.934   -9.900     1.43    0.000    0.000       27        8     2017  Maize_Short_Soroca_7May_NonOptimum_85_NCC.PRM
  Tot(38)        7        5     2018    243.9    523.5   1389.5   410.00      0.0    231.6     12.3      0.0      0.0     92.6       38    294.8    227.0      100     0.000     0.000     0.000     0.000      107        0       42       25        7        5        0    17.130       73     40.0    6.854   -9.900     1.77    0.000    0.000       27        8     2018  Maize_Short_Soroca_7May_NonOptimum_85_NCC.PRM
  Tot(39)        7        5     2019    283.0    528.5   1353.3   413.00      0.0    260.1     22.9     36.0      0.0    154.4       77    289.9    227.1       87     0.000     0.000     0.000     0.000      107        0       42       25        4        5       10    15.384       65     39.9    6.138   -9.900     1.38    0.000    0.000       27        8     2019  Maize_Short_Soroca_7May_NonOptimum_85_NCC.PRM
  Tot(40)        7        5     2020    209.7    542.9   1203.3   416.00      0.0    207.2      2.5      0.4      0.0    126.7       60    292.4    225.8       88     0.000     0.000     0.000     0.000      107        0       42       25       14        2        8    15.097       67     39.8    6.002   -9.900     1.43    0.000    0.000       27        8     2020  Maize_Short_Soroca_7May_NonOptimum_85_NCC.PRM
  Tot(41)        7        5     2021    216.8    525.8   1238.6   419.00      0.0    214.6      2.2      2.6      0.0    126.9       59    291.7    225.1       94     0.000     0.000     0.000     0.000      107        0       42       25        9        2        5    15.720       70     40.0    6.280   -9.900     1.50    0.000    0.000       27        8     2021  Maize_Short_Soroca_7May_NonOptimum_85_NCC.PRM
  Tot(42)        7        5     2022    238.9    453.0   1042.3   422.00      0.0    228.8     10.1     11.8      0.0    120.2       71    271.0    209.7      100     0.000     0.000     0.000     0.000      107        0       42       25       20        0        0    16.338       75     40.0    6.535   -9.900     1.67    0.000    0.000       27        8     2022  Maize_Short_Soroca_7May_NonOptimum_85_NCC.PRM
  Tot(43)        7        5     2023    204.1    465.6   1040.7   425.00      0.0    198.0      6.1      9.4      0.0    107.7       58    240.4    187.1       91     0.000     0.000     0.000     0.000      107        0       42       25       19        9        5    13.991       67     40.5    5.665   -9.900     1.63    0.000    0.000       27        8     2023  Maize_Short_Soroca_7May_NonOptimum_85_NCC.PRM
  Tot(44)        7        5     2024    148.1    634.7   1405.4   428.00      0.0    147.8      0.3      0.0      0.0    128.9       42    242.6    190.4       78     0.000     0.000     0.000     0.000      105        0       42       25        3       10       20    11.418       48     38.9    4.444   -9.900     1.20    0.000    0.000       27        8     2024  Maize_Short_Soroca_7May_NonOptimum_85_NCC.PRM
  Tot(45)        7        5     2025    279.8    495.8   1234.3   431.00      0.0    268.2     11.6     16.1      0.0    144.7       70    291.3    224.4      100     0.000     0.000     0.000     0.000      107        0       42       25        9        0        0    17.242       75     40.0    6.897   -9.900     1.58    0.000    0.000       27        8     2025  Maize_Short_Soroca_7May_NonOptimum_85_NCC.PRM
  Tot(46)        7        5     2026    236.7    437.5    981.1   435.00      0.0    223.1     13.6      7.7      0.0    108.9       62    234.0    180.4      100     0.000     0.000     0.000     0.000      107        0       42       25       21        6        0    15.119       74     40.3    6.089   -9.900     1.78    0.000    0.000       27        8     2026  Maize_Short_Soroca_7May_NonOptimum_85_NCC.PRM
  Tot(47)        7        5     2027    122.0    511.0   1045.5   438.00      0.0    109.6     12.4     29.2      0.0     92.9       49    213.0    166.9       77     0.000     0.000     0.000     0.000      107        0       42       25       25        3       16    11.635       55     39.2    4.558   -9.900     1.49    0.000    0.000       27        8     2027  Maize_Short_Soroca_7May_NonOptimum_85_NCC.PRM
  Tot(48)        7        5     2028    264.0    561.2   1318.0   442.00      0.0    244.8     19.2     36.9      0.0    155.3       74    275.8    214.1       81     0.000     0.000     0.000     0.000      107        0       42       25        7        5       14    14.196       60     39.5    5.600   -9.900     1.30    0.000    0.000       27        8     2028  Maize_Short_Soroca_7May_NonOptimum_85_NCC.PRM
  Tot(49)        7        5     2029    136.7    549.7   1188.9   445.00      0.0    134.3      2.4     13.6      0.0    120.2       55    225.9    175.9       76     0.000     0.000     0.000     0.000      107        0       42       25       15        7       20    11.326       50     39.0    4.412   -9.900     1.27    0.000    0.000       27        8     2029  Maize_Short_Soroca_7May_NonOptimum_85_NCC.PRM
  Tot(50)        7        5     2030    198.7    590.6   1321.8   449.00      0.0    187.0     11.7     18.3      0.0    152.9       60    228.0    179.2       72     0.000     0.000     0.000     0.000      107        0       42       25       12       21       23    10.204       42     39.7    4.051   -9.900     1.06    0.000    0.000       27        8     2030  Maize_Short_Soroca_7May_NonOptimum_85_NCC.PRM
  Tot(51)        7        5     2031    154.4    534.3   1187.4   452.00      0.0    151.2      3.2      7.5      0.0     80.6       39    278.1    215.4       87     0.000     0.000     0.000     0.000      107        0       42       25       12        3        9    14.703       65     39.8    5.851   -9.900     1.63    0.000    0.000       27        8     2031  Maize_Short_Soroca_7May_NonOptimum_85_NCC.PRM
  Tot(52)        7        5     2032    192.4    571.8   1274.4   456.00      0.0    178.0     14.4     17.6      0.0    154.8       59    215.1    169.1       75     0.000     0.000     0.000     0.000      107        0       42       25       13       18       19    10.334       44     36.9    3.809   -9.900     1.03    0.000    0.000       27        8     2032  Maize_Short_Soroca_7May_NonOptimum_85_NCC.PRM
  Tot(53)        7        5     2033    184.8    518.6   1224.7   460.00      0.0    183.2      1.6      1.8      0.0    139.0       69    260.9    202.0       84     0.000     0.000     0.000     0.000      107        0       42       25       12        4       10    14.591       63     39.8    5.802   -9.900     1.45    0.000    0.000       27        8     2033  Maize_Short_Soroca_7May_NonOptimum_85_NCC.PRM
  Tot(54)        7        5     2034    227.1    474.5   1135.2   464.00      0.0    217.3      9.8     17.4      0.0    126.9       71    271.8    210.0       95     0.000     0.000     0.000     0.000      107        0       42       25       15        4        4    16.150       71     40.2    6.492   -9.900     1.63    0.000    0.000       27        8     2034  Maize_Short_Soroca_7May_NonOptimum_85_NCC.PRM
  Tot(55)        7        5     2035    161.5    567.9   1261.6   468.00      0.0    157.9      3.6      2.9      0.0    130.9       59    248.3    194.3       77     0.000     0.000     0.000     0.000      107        0       42       25       10        8       18    12.676       54     39.2    4.965   -9.900     1.31    0.000    0.000       27        8     2035  Maize_Short_Soroca_7May_NonOptimum_85_NCC.PRM
  Tot(56)        7        5     2036    247.7    433.9   1078.5   472.00      0.0    246.5      1.2      0.5      0.0    143.9       84    243.8    188.3      100     0.000     0.000     0.000     0.000      107        0       42       25       19        1        0    15.757       75     40.0    6.305   -9.900     1.63    0.000    0.000       27        8     2036  Maize_Short_Soroca_7May_NonOptimum_85_NCC.PRM
  Tot(57)        7        5     2037    121.3    571.5   1357.0   476.00      0.0    120.4      0.9      0.0      0.0     91.3       37    251.9    197.0       79     0.000     0.000     0.000     0.000      107        0       42       25        6        7       13    13.830       57     39.4    5.455   -9.900     1.59    0.000    0.000       27        8     2037  Maize_Short_Soroca_7May_NonOptimum_85_NCC.PRM
  Tot(58)        7        5     2038    217.6    571.2   1332.1   481.00      0.0    210.2      7.4      0.0      0.0    143.5       68    291.0    226.3       82     0.000     0.000     0.000     0.000      107        0       42       25        9        5       13    14.781       61     39.3    5.809   -9.900     1.34    0.000    0.000       27        8     2038  Maize_Short_Soroca_7May_NonOptimum_85_NCC.PRM
  Tot(59)        7        5     2039     89.7    571.7   1256.1   485.00      0.0     89.7      0.0      0.0      0.0     88.9       35    223.8    175.1       75     0.000     0.000     0.000     0.000      107        0       42       25       11       12       18    11.958       50     39.5    4.718   -9.900     1.51    0.000    0.000       27        8     2039  Maize_Short_Soroca_7May_NonOptimum_85_NCC.PRM
  Tot(60)        7        5     2040    183.2    552.1   1241.4   489.00      0.0    180.0      3.2      6.7      0.0    141.7       68    256.2    199.7       79     0.000     0.000     0.000     0.000      107        0       42       25       11        7       18    13.275       54     39.2    5.208   -9.900     1.31    0.000    0.000       27        8     2040  Maize_Short_Soroca_7May_NonOptimum_85_NCC.PRM
  Tot(61)        7        5     2041    259.5    478.5   1233.0   494.00      0.0    249.1     10.4     31.5      0.0    143.7       80    279.8    214.8       94     0.000     0.000     0.000     0.000      107        0       42       25       10        0        4    16.735       71     39.9    6.684   -9.900     1.58    0.000    0.000       27        8     2041  Maize_Short_Soroca_7May_NonOptimum_85_NCC.PRM
  Tot(62)        7        5     2042     49.1    691.3   1463.4   499.00      0.0     49.1      0.0      0.0      0.0     83.2       19    170.0    138.6       75     0.000     0.000     0.000     0.000       90        0       42       25       10       33       19     7.297       29     26.9    1.960   -9.900     0.81    0.000    0.000       27        8     2042  Maize_Short_Soroca_7May_NonOptimum_85_NCC.PRM
  Tot(63)        7        5     2043    174.9    539.3   1282.1   504.00      0.0    171.1      3.8      3.7      0.0    126.9       59    262.3    203.2       83     0.000     0.000     0.000     0.000      107        0       42       25        9        8       11    14.407       62     40.0    5.757   -9.900     1.48    0.000    0.000       27        8     2043  Maize_Short_Soroca_7May_NonOptimum_85_NCC.PRM
  Tot(64)        7        5     2044    222.5    486.9   1162.5   508.00      0.0    206.1     16.4     20.4      0.0     92.3       49    283.9    219.4       98     0.000     0.000     0.000     0.000      107        0       42       25       12        2        2    17.128       73     40.0    6.852   -9.900     1.82    0.000    0.000       27        8     2044  Maize_Short_Soroca_7May_NonOptimum_85_NCC.PRM
  Tot(65)        7        5     2045    196.6    492.7   1117.0   513.00      0.0    169.2     27.4     47.6      0.0     96.9       61    247.8    192.9       80     0.000     0.000     0.000     0.000      107        0       42       25       23        5       17    13.240       56     39.2    5.186   -9.900     1.50    0.000    0.000       27        8     2045  Maize_Short_Soroca_7May_NonOptimum_85_NCC.PRM
  Tot(66)        7        5     2046    232.8    516.9   1299.3   519.00      0.0    219.1     13.7     20.9      0.0    123.2       68    293.5    226.8       88     0.000     0.000     0.000     0.000      107        0       42       25       14        5        9    16.248       66     39.9    6.484   -9.900     1.56    0.000    0.000       27        8     2046  Maize_Short_Soroca_7May_NonOptimum_85_NCC.PRM
  Tot(67)        7        5     2047    212.3    457.4   1154.0   524.00      0.0    205.6      6.7     11.2      0.0    123.5       77    270.7    208.7       97     0.000     0.000     0.000     0.000      107        0       42       25       14        0        3    16.810       73     40.0    6.725   -9.900     1.71    0.000    0.000       27        8     2047  Maize_Short_Soroca_7May_NonOptimum_85_NCC.PRM
  Tot(68)        7        5     2048    216.2    552.4   1301.8   529.00      0.0    188.1     28.1     43.8      0.0     99.8       48    268.2    208.6       82     0.000     0.000     0.000     0.000      107        0       42       25       11        3       13    13.908       59     39.3    5.471   -9.900     1.49    0.000    0.000       27        8     2048  Maize_Short_Soroca_7May_NonOptimum_85_NCC.PRM
  Tot(69)        7        5     2049    209.8    485.5   1141.8   535.00      0.0    199.9      9.9      1.0      0.0    114.9       62    278.9    214.5       98     0.000     0.000     0.000     0.000      107        0       42       25       13        3        2    17.132       73     40.0    6.860   -9.900     1.74    0.000    0.000       27        8     2049  Maize_Short_Soroca_7May_NonOptimum_85_NCC.PRM
  Tot(70)        7        5     2050    274.4    458.3   1125.4   541.00      0.0    245.3     29.1     50.7      0.0    134.0       86    268.9    208.6       93     0.000     0.000     0.000     0.000      107        0       42       25       19        3        5    16.641       70     40.1    6.673   -9.900     1.66    0.000    0.000       27        8     2050  Maize_Short_Soroca_7May_NonOptimum_85_NCC.PRM
  Tot(71)        7        5     2051    315.0    402.5   1080.9   546.00      0.0    297.2     17.8     10.1      0.0    128.4       81    228.0    175.8      100     0.000     0.000     0.000     0.000      107        0       42       25       14        1        0    17.170       75     40.0    6.870   -9.900     1.93    0.000    0.000       27        8     2051  Maize_Short_Soroca_7May_NonOptimum_85_NCC.PRM
  Tot(72)        7        5     2052    191.9    564.9   1331.2   552.00      0.0    186.9      5.0      5.2      0.0    135.8       63    269.9    212.3       81     0.000     0.000     0.000     0.000      107        0       42       25        7        7       14    14.249       58     39.2    5.592   -9.900     1.38    0.000    0.000       27        8     2052  Maize_Short_Soroca_7May_NonOptimum_85_NCC.PRM
  Tot(73)        7        5     2053    293.6    457.1   1219.5   558.00      0.0    268.0     25.6     50.6      0.0    127.3       84    289.7    222.5       97     0.000     0.000     0.000     0.000      107        0       42       25       13        0        3    17.785       73     40.0    7.120   -9.900     1.71    0.000    0.000       27        8     2053  Maize_Short_Soroca_7May_NonOptimum_85_NCC.PRM
  Tot(74)        7        5     2054    276.4    518.7   1305.7   564.00      0.0    232.3     44.1     39.7      0.0    148.2       77    265.4    206.5       85     0.000     0.000     0.000     0.000      107        0       42       25        8        3       12    15.235       62     39.7    6.042   -9.900     1.46    0.000    0.000       27        8     2054  Maize_Short_Soroca_7May_NonOptimum_85_NCC.PRM
  Tot(75)        7        5     2055    241.5    505.7   1218.8   571.00      0.0    238.6      2.9      1.3      0.0    143.3       69    279.6    216.4       98     0.000     0.000     0.000     0.000      107        0       42       25        9        1        1    17.068       74     40.0    6.825   -9.900     1.61    0.000    0.000       27        8     2055  Maize_Short_Soroca_7May_NonOptimum_85_NCC.PRM
  Tot(76)        7        5     2056    116.8    658.2   1530.8   577.00      0.0    114.6      2.2      0.0      0.0    112.8       35    221.3    174.5       73     0.000     0.000     0.000     0.000       99        0       42       25        3       15       21    10.536       42     34.9    3.677   -9.900     1.11    0.000    0.000       27        8     2056  Maize_Short_Soroca_7May_NonOptimum_85_NCC.PRM
  Tot(77)        7        5     2057    201.1    518.7   1229.2   583.00      0.0    180.7     20.4     15.2      0.0    141.5       76    245.8    190.6       80     0.000     0.000     0.000     0.000      107        0       42       25       16        6       15    14.023       58     39.5    5.538   -9.900     1.43    0.000    0.000       27        8     2057  Maize_Short_Soroca_7May_NonOptimum_85_NCC.PRM
  Tot(78)        7        5     2058    116.4    554.9   1246.3   590.00      0.0    113.1      3.3      6.8      0.0    106.3       52    226.7    176.2       74     0.000     0.000     0.000     0.000      107        0       42       25       13        4       20    12.472       52     38.5    4.807   -9.900     1.44    0.000    0.000       27        8     2058  Maize_Short_Soroca_7May_NonOptimum_85_NCC.PRM
  Tot(79)        7        5     2059     98.3    633.8   1423.9   597.00      0.0     96.2      2.1      4.9      0.0    121.9       34    176.3    140.8       75     0.000     0.000     0.000     0.000       92        0       42       25        8       28       20     8.477       34     28.9    2.447   -9.900     0.84    0.000    0.000       27        8     2059  Maize_Short_Soroca_7May_NonOptimum_85_NCC.PRM
  Tot(80)        7        5     2060    192.9    447.5   1069.0   604.00      0.0    192.5      0.4      0.0      0.0    119.2       67    247.1    189.1      100     0.000     0.000     0.000     0.000      107        0       42       25       19        1        0    17.000       75     40.1    6.810   -9.900     1.86    0.000    0.000       27        8     2060  Maize_Short_Soroca_7May_NonOptimum_85_NCC.PRM
  Tot(81)        7        5     2061    189.7    508.1   1241.4   611.00      0.0    175.7     14.0     31.9      0.0    112.9       64    252.8    197.0       83     0.000     0.000     0.000     0.000      107        0       42       25       10        4       14    14.360       60     39.5    5.677   -9.900     1.55    0.000    0.000       27        8     2061  Maize_Short_Soroca_7May_NonOptimum_85_NCC.PRM
  Tot(82)        7        5     2062    203.7    581.9   1377.0   618.00      0.0    200.3      3.4      2.4      0.0    114.3       48    275.5    213.6       84     0.000     0.000     0.000     0.000      107        0       42       25        7       13       10    14.872       61     39.9    5.935   -9.900     1.52    0.000    0.000       27        8     2062  Maize_Short_Soroca_7May_NonOptimum_85_NCC.PRM
  Tot(83)        7        5     2063    191.0    590.1   1367.4   625.00      0.0    178.2     12.8     25.2      0.0    157.5       60    216.8    170.9       77     0.000     0.000     0.000     0.000      105        0       42       25        6       10       19    12.315       50     39.3    4.835   -9.900     1.29    0.000    0.000       27        8     2063  Maize_Short_Soroca_7May_NonOptimum_85_NCC.PRM
  Tot(84)        7        5     2064    136.4    567.0   1353.7   632.00      0.0    135.3      1.1      1.7      0.0    113.9       49    230.5    179.4       78     0.000     0.000     0.000     0.000      107        0       42       25       10       10       17    12.408       51     39.3    4.872   -9.900     1.41    0.000    0.000       27        8     2064  Maize_Short_Soroca_7May_NonOptimum_85_NCC.PRM
  Tot(85)        7        5     2065    252.6    563.7   1419.6   639.00      0.0    233.9     18.7     33.9      0.0    137.2       70    286.2    221.6       83     0.000     0.000     0.000     0.000      107        0       42       25        6        1       13    15.394       62     39.3    6.056   -9.900     1.43    0.000    0.000       27        8     2065  Maize_Short_Soroca_7May_NonOptimum_85_NCC.PRM
  Tot(86)        7        5     2066     88.2    625.2   1419.9   647.00      0.0     88.1      0.1      0.0      0.0     95.2       30    207.0    164.3       75     0.000     0.000     0.000     0.000      101        0       42       25        7       20       20    10.540       42     37.4    3.942   -9.900     1.32    0.000    0.000       27        8     2066  Maize_Short_Soroca_7May_NonOptimum_85_NCC.PRM
  Tot(87)        7        5     2067    105.6    651.6   1428.3   654.00      0.0    105.5      0.1      0.0      0.0    122.8       33    186.8    149.0       76     0.000     0.000     0.000     0.000       95        0       42       25        9       27       19     9.103       36     32.0    2.910   -9.900     0.97    0.000    0.000       27        8     2067  Maize_Short_Soroca_7May_NonOptimum_85_NCC.PRM
  Tot(88)        7        5     2068    259.0    505.5   1298.7   662.00      0.0    233.3     25.7     45.6      0.0    145.4       82    263.7    203.6       86     0.000     0.000     0.000     0.000      107        0       42       25        7        2       11    15.616       64     39.6    6.191   -9.900     1.51    0.000    0.000       27        8     2068  Maize_Short_Soroca_7May_NonOptimum_85_NCC.PRM
  Tot(89)        7        5     2069    349.7    443.2   1189.6   669.00      0.0    318.2     31.5     47.3      0.0    147.4       86    253.9    194.7      100     0.000     0.000     0.000     0.000      107        0       42       25        9        2        0    17.776       75     40.1    7.135   -9.900     1.78    0.000    0.000       27        8     2069  Maize_Short_Soroca_7May_NonOptimum_85_NCC.PRM
  Tot(90)        7        5     2070    120.8    541.2   1278.9   677.00      0.0    117.5      3.3     10.9      0.0     85.0       42    245.8    192.6       80     0.000     0.000     0.000     0.000      107        0       42       25       11        5       15    14.165       58     39.4    5.579   -9.900     1.69    0.000    0.000       27        8     2070  Maize_Short_Soroca_7May_NonOptimum_85_NCC.PRM
  Tot(91)        7        5     2071    235.6    547.4   1428.6   685.00      0.0    218.7     16.9     27.0      0.0    134.4       67    273.0    211.7       84     0.000     0.000     0.000     0.000      107        0       42       25        5        3       12    15.020       61     39.8    5.972   -9.900     1.47    0.000    0.000       27        8     2071  Maize_Short_Soroca_7May_NonOptimum_85_NCC.PRM
  Tot(92)        7        5     2072    276.2    508.0   1428.1   693.00      0.0    265.4     10.8     12.9      0.0    140.8       71    294.8    226.6       99     0.000     0.000     0.000     0.000      107        0       42       25        3        1        0    18.303       75     40.0    7.326   -9.900     1.68    0.000    0.000       27        8     2072  Maize_Short_Soroca_7May_NonOptimum_85_NCC.PRM
  Tot(93)        7        5     2073    168.7    598.4   1416.2   701.00      0.0    168.1      0.6      0.0      0.0    127.8       56    254.7    199.1       78     0.000     0.000     0.000     0.000      107        0       42       25        6        6       16    12.879       53     38.9    5.006   -9.900     1.31    0.000    0.000       27        8     2073  Maize_Short_Soroca_7May_NonOptimum_85_NCC.PRM
  Tot(94)        7        5     2074    266.0    610.0   1556.0   709.00      0.0    256.8      9.2     27.6      0.0    149.8       63    280.1    220.1       82     0.000     0.000     0.000     0.000      107        0       42       25        5       10       16    13.388       53     39.1    5.240   -9.900     1.22    0.000    0.000       27        8     2074  Maize_Short_Soroca_7May_NonOptimum_85_NCC.PRM
  Tot(95)        7        5     2075    148.9    549.8   1264.2   717.00      0.0    145.1      3.8      4.2      0.0    108.6       53    249.7    195.0       80     0.000     0.000     0.000     0.000      107        0       42       25       13       16       15    13.722       56     40.2    5.513   -9.900     1.54    0.000    0.000       27        8     2075  Maize_Short_Soroca_7May_NonOptimum_85_NCC.PRM
  Tot(96)        7        5     2076    189.2    518.1   1328.8   725.00      0.0    187.1      2.1      0.0      0.0    129.1       71    276.0    213.1       87     0.000     0.000     0.000     0.000      107        0       42       25       10        2        9    16.237       66     39.8    6.463   -9.900     1.60    0.000    0.000       27        8     2076  Maize_Short_Soroca_7May_NonOptimum_85_NCC.PRM
  Tot(97)        7        5     2077     95.5    626.5   1447.6   733.00      0.0     95.3      0.2      0.0      0.0     99.3       33    218.4    171.9       77     0.000     0.000     0.000     0.000      104        0       42       25        4       11       20    11.420       46     39.0    4.451   -9.900     1.40    0.000    0.000       27        8     2077  Maize_Short_Soroca_7May_NonOptimum_85_NCC.PRM
  Tot(98)        7        5     2078    131.1    632.2   1450.0   742.00      0.0    115.7     15.4     36.2      0.0     95.8       32    204.1    160.4       74     0.000     0.000     0.000     0.000       99        0       42       25       10       18       21    10.429       42     35.2    3.671   -9.900     1.23    0.000    0.000       27        8     2078  Maize_Short_Soroca_7May_NonOptimum_85_NCC.PRM
  Tot(99)        7        5     2079    228.3    485.7   1327.6   750.00      0.0    218.5      9.8     24.0      0.0    128.0       77    272.5    209.1       93     0.000     0.000     0.000     0.000      107        0       42       25        8        4        5    16.722       69     40.2    6.717   -9.900     1.68    0.000    0.000       27        8     2079  Maize_Short_Soroca_7May_NonOptimum_85_NCC.PRM
 Tot(100)        7        5     2080    233.8    488.9   1176.2   758.00      0.0    217.9     15.9     27.7      0.0    133.7       75    233.9    182.6       84     0.000     0.000     0.000     0.000      107        0       42       25       17        8       11    14.142       59     39.9    5.643   -9.900     1.54    0.000    0.000       27        8     2080  Maize_Short_Soroca_7May_NonOptimum_85_NCC.PRM
 Tot(101)        7        5     2081     87.5    627.5   1459.8   767.00      0.0     87.4      0.1      0.0      0.0    100.0       31    188.2    149.4       74     0.000     0.000     0.000     0.000       96        0       42       25        6       21       20     9.461       39     32.7    3.096   -9.900     1.10    0.000    0.000       27        8     2081  Maize_Short_Soroca_7May_NonOptimum_85_NCC.PRM
 Tot(102)        7        5     2082    396.1    461.9   1342.6   775.00      0.0    340.8     55.3     37.7      0.0    140.3       76    257.3    197.0      100     0.000     0.000     0.000     0.000      107        0       42       25        8        2        0    17.917       75     40.1    7.186   -9.900     1.81    0.000    0.000       27        8     2082  Maize_Short_Soroca_7May_NonOptimum_85_NCC.PRM
 Tot(103)        7        5     2083    221.4    555.3   1499.1   784.00      0.0    219.8      1.6      1.3      0.0    119.8       54    298.6    232.0       95     0.000     0.000     0.000     0.000      107        0       42       25        3        4        3    17.102       70     40.0    6.845   -9.900     1.64    0.000    0.000       27        8     2083  Maize_Short_Soroca_7May_NonOptimum_85_NCC.PRM
 Tot(104)        7        5     2084    226.5    496.8   1322.4   792.00      0.0    199.0     27.5     20.7      0.0    102.2       50    268.2    209.3       97     0.000     0.000     0.000     0.000      107        0       42       25        9       18        2    17.015       70     40.6    6.916   -9.900     1.87    0.000    0.000       27        8     2084  Maize_Short_Soroca_7May_NonOptimum_85_NCC.PRM
 Tot(105)        7        5     2085    101.8    713.8   1688.4   801.00      0.0    101.6      0.2      0.0      0.0    132.5       30    165.5    135.1       76     0.000     0.000     0.000     0.000       89        0       42       25        4       33       19     7.393       30     26.1    1.927   -9.900     0.68    0.000    0.000       27        8     2085  Maize_Short_Soroca_7May_NonOptimum_85_NCC.PRM
 Tot(106)        7        5     2086    141.6    552.7   1402.7   810.00      0.0    141.5      0.1      0.0      0.0    106.4       45    252.8    196.3       86     0.000     0.000     0.000     0.000      107        0       42       25        3        8        9    15.508       64     39.9    6.182   -9.900     1.72    0.000    0.000       27        8     2086  Maize_Short_Soroca_7May_NonOptimum_85_NCC.PRM
 Tot(107)        7        5     2087    214.7    518.0   1346.7   818.00      0.0    200.7     14.0     23.6      0.0    141.5       78    255.6    197.7       85     0.000     0.000     0.000     0.000      107        0       42       25       10        2       10    15.484       65     39.8    6.165   -9.900     1.55    0.000    0.000       27        8     2087  Maize_Short_Soroca_7May_NonOptimum_85_NCC.PRM
 Tot(108)        7        5     2088    247.5    664.3   1679.9   827.00      0.0    200.8     46.7     52.9      0.0    155.6       45    204.7    162.4       76     0.000     0.000     0.000     0.000       97        0       42       25        4       22       20     9.599       39     33.9    3.258   -9.900     0.91    0.000    0.000       27        8     2088  Maize_Short_Soroca_7May_NonOptimum_85_NCC.PRM
 Tot(109)        7        5     2089    139.9    637.0   1435.5   836.00      0.0    130.0      9.9     15.9      0.0    126.7       40    201.3    159.6       76     0.000     0.000     0.000     0.000       97        0       42       25       11       25       20     9.472       39     33.8    3.205   -9.900     0.98    0.000    0.000       27        8     2089  Maize_Short_Soroca_7May_NonOptimum_85_NCC.PRM
 Tot(110)        7        5     2090    135.4    584.4   1441.5   845.00      0.0    135.2      0.2      0.0      0.0    129.6       53    226.9    177.3       78     0.000     0.000     0.000     0.000      107        0       42       25        9       10       19    12.507       51     39.4    4.923   -9.900     1.38    0.000    0.000       27        8     2090  Maize_Short_Soroca_7May_NonOptimum_85_NCC.PRM
 Tot(111)        7        5     2091    281.7    512.9   1388.1   854.00      0.0    267.7     14.0     34.7      0.0    149.7       83    287.2    220.5       95     0.000     0.000     0.000     0.000      107        0       42       25        7        2        4    17.147       72     40.0    6.855   -9.900     1.57    0.000    0.000       27        8     2091  Maize_Short_Soroca_7May_NonOptimum_85_NCC.PRM
 Tot(112)        7        5     2092    246.8    583.5   1492.4   863.00      0.0    226.9     19.9     27.2      0.0    146.1       74    277.0    215.8       81     0.000     0.000     0.000     0.000      107        0       42       25        5        2       13    14.929       62     39.3    5.871   -9.900     1.39    0.000    0.000       27        8     2092  Maize_Short_Soroca_7May_NonOptimum_85_NCC.PRM
 Tot(113)        7        5     2093    315.6    591.4   1605.9   872.00      0.0    275.5     40.1     67.0      0.0    145.1       75    286.8    221.8       81     0.000     0.000     0.000     0.000      107        0       42       25        2        1       13    15.109       62     39.3    5.934   -9.900     1.37    0.000    0.000       27        8     2093  Maize_Short_Soroca_7May_NonOptimum_85_NCC.PRM
 Tot(114)        7        5     2094    296.9    556.6   1482.4   881.00      0.0    274.1     22.8     32.1      0.0    122.3       63    308.3    238.6       94     0.000     0.000     0.000     0.000      107        0       42       25        4        6        4    16.970       70     40.1    6.812   -9.900     1.58    0.000    0.000       27        8     2094  Maize_Short_Soroca_7May_NonOptimum_85_NCC.PRM
 Tot(115)        7        5     2095    204.7    603.9   1540.9   890.00      0.0    196.9      7.8      5.3      0.0    141.3       65    272.3    211.4       81     0.000     0.000     0.000     0.000      107        0       42       25        4        5       14    14.378       60     39.5    5.682   -9.900     1.37    0.000    0.000       27        8     2095  Maize_Short_Soroca_7May_NonOptimum_85_NCC.PRM
 Tot(116)        7        5     2096    187.7    636.6   1608.4   899.00      0.0    180.5      7.2      1.9      0.0    141.6       58    261.5    203.7       78     0.000     0.000     0.000     0.000      107        0       42       25        2        4       18    13.204       55     38.9    5.141   -9.900     1.28    0.000    0.000       27        8     2096  Maize_Short_Soroca_7May_NonOptimum_85_NCC.PRM
 Tot(117)        7        5     2097    175.8    633.1   1505.4   908.00      0.0    175.1      0.7      1.1      0.0    130.1       48    263.1    205.6       83     0.000     0.000     0.000     0.000      107        0       42       25        4       13       14    13.354       56     40.1    5.350   -9.900     1.36    0.000    0.000       27        8     2097  Maize_Short_Soroca_7May_NonOptimum_85_NCC.PRM
 Tot(118)        7        5     2098    134.4    617.3   1548.8   917.00      0.0    133.0      1.4      0.0      0.0    105.9       43    247.6    193.2       79     0.000     0.000     0.000     0.000      107        0       42       25        6        8       18    12.669       53     39.3    4.983   -9.900     1.41    0.000    0.000       27        8     2098  Maize_Short_Soroca_7May_NonOptimum_85_NCC.PRM
 Tot(119)        7        5     2099    168.0    529.8   1370.9   927.00      0.0    167.5      0.5      0.0      0.0    111.6       59    267.5    206.2       89     0.000     0.000     0.000     0.000      107        0       42       25        8        2        7    16.023       68     39.8    6.385   -9.900     1.68    0.000    0.000       27        8     2099  Maize_Short_Soroca_7May_NonOptimum_85_NCC.PRM
