AquaCrop 7.0 (August 2022) - Output created on (date) : 24-11-2022   at (time) : 10:20:28

    RunNr     Day1   Month1    Year1     Rain      ETo       GD     CO2      Irri   Infilt   Runoff    Drain   Upflow        E     E/Ex       Tr      TrW   Tr/Trx    SaltIn   SaltOut    SaltUp  SaltProf     Cycle   SaltStr  FertStr  WeedStr  TempStr   ExpStr   StoStr  BioMass  Brelative   HI    Y(dry)  Y(fresh)    WPet      Bin     Bout     DayN   MonthN    YearN
                                           mm       mm  degC.day    ppm        mm       mm       mm       mm       mm       mm        %       mm       mm        %    ton/ha    ton/ha    ton/ha    ton/ha      days       %        %        %        %        %        %    ton/ha        %       %    ton/ha   ton/ha    kg/m3   ton/ha   ton/ha
   Tot(1)        7        5     1981    150.4    483.8   1212.1   340.11      0.0    145.9      4.5     12.1      0.0     84.3       41    248.4    248.2       87     0.000     0.000     0.000     0.000      107        0        0        0       12        5        9    17.662       82     39.6    7.001   -9.900     2.10    0.000    0.000       27        8     1981  Maize_short_Chisinau_7May_Optimum_85_MOHC.PRM
   Tot(2)        7        5     1982    192.0    471.0   1188.7   341.22      0.0    191.9      0.1      0.0      0.0     76.4       35    258.6    256.9      100     0.000     0.000     0.000     0.000      107        0        0        0       11        2        0    20.631       96     40.0    8.253   -9.900     2.46    0.000    0.000       27        8     1982  Maize_short_Chisinau_7May_Optimum_85_MOHC.PRM
   Tot(3)        7        5     1983    269.2    465.2   1233.5   342.84      0.0    253.3     15.9     23.6      0.0     99.3       48    261.7    261.5      100     0.000     0.000     0.000     0.000      107        0        0        0        9        2        0    20.707       97     40.1    8.297   -9.900     2.30    0.000    0.000       27        8     1983  Maize_short_Chisinau_7May_Optimum_85_MOHC.PRM
   Tot(4)        7        5     1984    239.1    438.2   1067.3   344.40      0.0    237.1      2.0      2.8      0.0    134.8       75    245.6    247.7      100     0.000     0.000     0.000     0.000      107        0        0        0       17        0        0    19.708       98     40.0    7.884   -9.900     2.07    0.000    0.000       27        8     1984  Maize_short_Chisinau_7May_Optimum_85_MOHC.PRM
   Tot(5)        7        5     1985    292.8    461.8   1172.6   345.87      0.0    263.1     29.7     63.0      0.0    102.2       53    265.5    262.7      100     0.000     0.000     0.000     0.000      107        0        0        0       13        0        0    20.320       97     40.0    8.128   -9.900     2.21    0.000    0.000       27        8     1985  Maize_short_Chisinau_7May_Optimum_85_MOHC.PRM
   Tot(6)        7        5     1986    172.4    527.7   1261.6   347.19      0.0    171.9      0.5      0.0      0.0     89.5       39    281.4    282.2       93     0.000     0.000     0.000     0.000      107        0        0        0        8        5        4    19.208       89     40.0    7.686   -9.900     2.07    0.000    0.000       27        8     1986  Maize_short_Chisinau_7May_Optimum_85_MOHC.PRM
   Tot(7)        7        5     1987    259.6    481.6   1137.9   348.98      0.0    253.3      6.3      0.0      0.0    110.0       59    294.0    293.3      100     0.000     0.000     0.000     0.000      107        0        0        0       15        3        0    20.410       97     40.2    8.196   -9.900     2.03    0.000    0.000       27        8     1987  Maize_short_Chisinau_7May_Optimum_85_MOHC.PRM
   Tot(8)        7        5     1988    236.3    471.5   1252.6   351.45      0.0    227.3      9.0     15.1      0.0    121.2       71    286.2    289.1       93     0.000     0.000     0.000     0.000      107        0        0        0        9        3        5    20.036       90     39.9    8.003   -9.900     1.96    0.000    0.000       27        8     1988  Maize_short_Chisinau_7May_Optimum_85_MOHC.PRM
   Tot(9)        7        5     1989    210.4    486.7   1164.0   352.89      0.0    207.5      2.9      2.5      0.0     95.5       49    291.8    290.7       99     0.000     0.000     0.000     0.000      107        0        0        0       14        3        1    20.905       96     40.2    8.402   -9.900     2.17    0.000    0.000       27        8     1989  Maize_short_Chisinau_7May_Optimum_85_MOHC.PRM
  Tot(10)        7        5     1990    161.6    507.1   1149.5   354.16      0.0    158.4      3.2      2.2      0.0    115.0       55    257.2    258.0       86     0.000     0.000     0.000     0.000      107        0        0        0       16        5       11    17.797       80     39.9    7.104   -9.900     1.91    0.000    0.000       27        8     1990  Maize_short_Chisinau_7May_Optimum_85_MOHC.PRM
  Tot(11)        7        5     1991    438.7    420.7   1183.0   355.48      0.0    393.0     45.7     66.9      0.0    123.6       82    281.3    280.7      100     0.000     0.000     0.000     0.000      107        0        0        0       17        0        0    22.290       98     40.0    8.918   -9.900     2.20    0.000    0.000       27        8     1991  Maize_short_Chisinau_7May_Optimum_85_MOHC.PRM
  Tot(12)        7        5     1992    191.1    523.2   1230.9   356.27      0.0    188.5      2.6      5.7      0.0    128.5       66    273.6    274.3       83     0.000     0.000     0.000     0.000      107        0        0        0       16        4       13    17.580       78     39.5    6.943   -9.900     1.73    0.000    0.000       27        8     1992  Maize_short_Chisinau_7May_Optimum_85_MOHC.PRM
  Tot(13)        7        5     1993    202.8    503.8   1154.4   356.95      0.0    196.6      6.2     19.9      0.0    106.9       53    274.0    273.7       93     0.000     0.000     0.000     0.000      107        0        0        0       13        3        5    18.764       90     39.9    7.490   -9.900     1.97    0.000    0.000       27        8     1993  Maize_short_Chisinau_7May_Optimum_85_MOHC.PRM
  Tot(14)        7        5     1994    258.9    536.5   1263.4   358.63      0.0    219.5     39.4      7.8      0.0    105.8       45    256.5    257.4       84     0.000     0.000     0.000     0.000      107        0        0        0       10       11       11    16.407       72     39.7    6.516   -9.900     1.80    0.000    0.000       27        8     1994  Maize_short_Chisinau_7May_Optimum_85_MOHC.PRM
  Tot(15)        7        5     1995    186.0    502.8   1281.6   360.62      0.0    184.0      2.0      2.1      0.0     91.1       44    283.7    282.9       91     0.000     0.000     0.000     0.000      107        0        0        0        8        6        6    20.100       87     40.1    8.059   -9.900     2.15    0.000    0.000       27        8     1995  Maize_short_Chisinau_7May_Optimum_85_MOHC.PRM
  Tot(16)        7        5     1996    148.0    541.5   1272.6   362.37      0.0    147.1      0.9      0.0      0.0    101.4       38    231.0    231.1       85     0.000     0.000     0.000     0.000      107        0        0        0       10       18       10    15.398       70     40.5    6.235   -9.900     1.88    0.000    0.000       27        8     1996  Maize_short_Chisinau_7May_Optimum_85_MOHC.PRM
  Tot(17)        7        5     1997    305.0    448.8   1194.3   363.47      0.0    288.7     16.3      0.0      0.0     83.2       41    258.3    258.7      100     0.000     0.000     0.000     0.000      107        0        0        0       12        3        0    21.670       96     40.0    8.675   -9.900     2.54    0.000    0.000       27        8     1997  Maize_short_Chisinau_7May_Optimum_85_MOHC.PRM
  Tot(18)        7        5     1998    210.4    488.7   1249.2   366.50      0.0    205.7      4.7     10.9      0.0    111.7       61    290.0    289.0       94     0.000     0.000     0.000     0.000      107        0        0        0       14        1        5    20.335       91     39.9    8.123   -9.900     2.02    0.000    0.000       27        8     1998  Maize_short_Chisinau_7May_Optimum_85_MOHC.PRM
  Tot(19)        7        5     1999    158.4    516.7   1334.1   368.14      0.0    157.0      1.4      0.0      0.0    100.6       45    268.0    268.6       87     0.000     0.000     0.000     0.000      107        0        0        0        8        7       10    18.415       79     40.1    7.384   -9.900     2.00    0.000    0.000       27        8     1999  Maize_short_Chisinau_7May_Optimum_85_MOHC.PRM
  Tot(20)        7        5     2000    167.4    572.2   1257.5   369.41      0.0    163.5      3.9      0.0      0.0     68.3       25    276.6    277.2       91     0.000     0.000     0.000     0.000      107        0        0        0       11       15        6    17.921       82     40.2    7.199   -9.900     2.09    0.000    0.000       27        8     2000  Maize_short_Chisinau_7May_Optimum_85_MOHC.PRM
  Tot(21)        7        5     2001    210.4    518.6   1269.3   371.07      0.0    189.0     21.4     20.8      0.0    114.9       57    275.9    275.6       85     0.000     0.000     0.000     0.000      107        0        0        0       13        2       12    18.703       81     39.6    7.401   -9.900     1.89    0.000    0.000       27        8     2001  Maize_short_Chisinau_7May_Optimum_85_MOHC.PRM
  Tot(22)        7        5     2002    285.3    517.8   1347.8   373.16      0.0    259.1     26.2      0.0      0.0    101.6       45    297.0    295.1       96     0.000     0.000     0.000     0.000      107        0        0        0        7       18        2    20.670       88     40.9    8.454   -9.900     2.12    0.000    0.000       27        8     2002  Maize_short_Chisinau_7May_Optimum_85_MOHC.PRM
  Tot(23)        7        5     2003    186.5    574.0   1346.0   375.80      0.0    185.1      1.4      0.0      0.0     79.3       27    298.2    298.3       98     0.000     0.000     0.000     0.000      107        0        0        0        6       10        1    20.664       90     40.1    8.283   -9.900     2.19    0.000    0.000       27        8     2003  Maize_short_Chisinau_7May_Optimum_85_MOHC.PRM
  Tot(24)        7        5     2004    218.3    504.4   1151.0   377.49      0.0    209.4      8.9      0.0      0.0    107.5       51    288.6    288.6       96     0.000     0.000     0.000     0.000      107        0        0        0       16       11        3    20.363       90     40.3    8.212   -9.900     2.07    0.000    0.000       27        8     2004  Maize_short_Chisinau_7May_Optimum_85_MOHC.PRM
  Tot(25)        7        5     2005    328.8    485.2   1234.8   379.80      0.0    312.1     16.7     20.4      0.0    126.4       64    298.8    298.4      100     0.000     0.000     0.000     0.000      107        0        0        0       10        1        0    22.452       97     40.1    8.997   -9.900     2.12    0.000    0.000       27        8     2005  Maize_short_Chisinau_7May_Optimum_85_MOHC.PRM
  Tot(26)        7        5     2006    272.0    533.8   1259.8   381.90      0.0    265.7      6.3      5.5      0.0    142.1       70    318.0    318.5       94     0.000     0.000     0.000     0.000      107        0        0        0       10        4        5    20.866       90     40.2    8.391   -9.900     1.82    0.000    0.000       27        8     2006  Maize_short_Chisinau_7May_Optimum_85_MOHC.PRM
  Tot(27)        7        5     2007    144.6    648.6   1473.6   383.77      0.0    144.1      0.5      0.0      0.0    103.1       31    250.0    251.3       78     0.000     0.000     0.000     0.000      107        0        0        0        2       20       16    14.065       59     40.1    5.642   -9.900     1.60    0.000    0.000       27        8     2007  Maize_short_Chisinau_7May_Optimum_85_MOHC.PRM
  Tot(28)        7        5     2008    177.3    560.5   1291.6   385.59      0.0    172.8      4.5      0.0      0.0     88.5       38    300.9    300.8       88     0.000     0.000     0.000     0.000      107        0        0        0        6       10        9    19.421       82     40.2    7.814   -9.900     2.01    0.000    0.000       27        8     2008  Maize_short_Chisinau_7May_Optimum_85_MOHC.PRM
  Tot(29)        7        5     2009    161.5    583.3   1333.2   387.37      0.0    160.0      1.5      0.0      0.0     86.6       33    293.0    292.9       86     0.000     0.000     0.000     0.000      107        0        0        0        6       10       11    18.297       78     39.9    7.298   -9.900     1.92    0.000    0.000       27        8     2009  Maize_short_Chisinau_7May_Optimum_85_MOHC.PRM
  Tot(30)        7        5     2010    248.4    518.6   1414.0   389.85      0.0    235.0     13.4      0.2      0.0    121.5       59    315.2    314.2       96     0.000     0.000     0.000     0.000      107        0        0        0        7        1        3    21.891       93     40.0    8.751   -9.900     2.00    0.000    0.000       27        8     2010  Maize_short_Chisinau_7May_Optimum_85_MOHC.PRM
  Tot(31)        7        5     2011    234.3    546.6   1320.9   391.63      0.0    220.0     14.3      7.4      0.0    112.6       48    306.3    306.6       95     0.000     0.000     0.000     0.000      107        0        0        0        6        2        4    20.849       91     40.0    8.336   -9.900     1.99    0.000    0.000       27        8     2011  Maize_short_Chisinau_7May_Optimum_85_MOHC.PRM
  Tot(32)        7        5     2012    192.6    618.6   1442.0   393.82      0.0    189.8      2.8      1.7      0.0    129.4       45    271.7    271.9       80     0.000     0.000     0.000     0.000      107        0        0        0        6       19       15    15.612       66     40.0    6.249   -9.900     1.56    0.000    0.000       27        8     2012  Maize_short_Chisinau_7May_Optimum_85_MOHC.PRM
  Tot(33)        7        5     2013    286.6    541.7   1380.1   396.48      0.0    259.3     27.3      1.1      0.0    118.5       54    322.6    323.2       94     0.000     0.000     0.000     0.000      107        0        0        0        4        2        4    21.875       91     39.9    8.734   -9.900     1.98    0.000    0.000       27        8     2013  Maize_short_Chisinau_7May_Optimum_85_MOHC.PRM
  Tot(34)        7        5     2014    244.6    539.8   1326.2   398.55      0.0    239.3      5.3      8.4      0.0    121.7       59    306.3    304.5       90     0.000     0.000     0.000     0.000      107        0        0        0        7        6        8    20.050       85     40.0    8.017   -9.900     1.87    0.000    0.000       27        8     2014  Maize_short_Chisinau_7May_Optimum_85_MOHC.PRM
  Tot(35)        7        5     2015    123.0    600.5   1355.8   402.00      0.0    122.8      0.2      0.3      0.0     77.9       29    262.6    264.9       79     0.000     0.000     0.000     0.000      107        0        0        0        6       10       16    16.136       69     39.5    6.370   -9.900     1.87    0.000    0.000       27        8     2015  Maize_short_Chisinau_7May_Optimum_85_MOHC.PRM
  Tot(36)        7        5     2016    255.7    540.8   1325.7   404.00      0.0    238.9     16.8     33.2      0.0    141.5       73    285.0    284.7       81     0.000     0.000     0.000     0.000      107        0        0        0       10        5       15    17.845       75     39.7    7.084   -9.900     1.66    0.000    0.000       27        8     2016  Maize_short_Chisinau_7May_Optimum_85_MOHC.PRM
  Tot(37)        7        5     2017    299.1    552.7   1316.4   407.00      0.0    280.2     18.9     14.6      0.0    112.9       53    345.5    343.7       98     0.000     0.000     0.000     0.000      107        0        0        0        9        2        1    22.575       95     40.1    9.045   -9.900     1.97    0.000    0.000       27        8     2017  Maize_short_Chisinau_7May_Optimum_85_MOHC.PRM
  Tot(38)        7        5     2018    279.9    546.1   1430.7   410.00      0.0    265.8     14.1      6.4      0.0    100.9       42    319.4    318.7      100     0.000     0.000     0.000     0.000      107        0        0        0        5        2        0    22.776       96     40.0    9.111   -9.900     2.17    0.000    0.000       27        8     2018  Maize_short_Chisinau_7May_Optimum_85_MOHC.PRM
  Tot(39)        7        5     2019    233.9    552.0   1390.8   413.00      0.0    225.8      8.1     15.5      0.0    132.2       61    296.4    298.7       87     0.000     0.000     0.000     0.000      107        0        0        0        3        9       10    19.481       81     40.1    7.821   -9.900     1.82    0.000    0.000       27        8     2019  Maize_short_Chisinau_7May_Optimum_85_MOHC.PRM
  Tot(40)        7        5     2020    106.1    643.8   1507.6   416.00      0.0     99.5      6.6     12.9      0.0     94.7       29    205.8    206.8       73     0.000     0.000     0.000     0.000       94        0        0        0        6       23       20    11.576       48     30.8    3.569   -9.900     1.20    0.000    0.000       27        8     2020  Maize_short_Chisinau_7May_Optimum_85_MOHC.PRM
  Tot(41)        7        5     2021     66.0    716.9   1506.2   419.00      0.0     62.5      3.5      9.1      0.0     78.0       17    173.9    173.9       72     0.000     0.000     0.000     0.000       86        0        0        0        8       32       20     8.394       34     23.4    1.963   -9.900     0.81    0.000    0.000       27        8     2021  Maize_short_Chisinau_7May_Optimum_85_MOHC.PRM
  Tot(42)        7        5     2022     84.6    626.9   1404.8   422.00      0.0     84.5      0.1      0.1      0.0     85.5       28    216.0    216.0       73     0.000     0.000     0.000     0.000       96        0        0        0       13       20       21    12.091       50     32.3    3.904   -9.900     1.30    0.000    0.000       27        8     2022  Maize_short_Chisinau_7May_Optimum_85_MOHC.PRM
  Tot(43)        7        5     2023     78.0    663.2   1448.4   425.00      0.0     78.0      0.0      0.0      0.0     96.2       27    189.6    189.6       71     0.000     0.000     0.000     0.000       91        0        0        0        9       23       21    10.381       43     27.9    2.891   -9.900     1.07    0.000    0.000       27        8     2023  Maize_short_Chisinau_7May_Optimum_85_MOHC.PRM
  Tot(44)        7        5     2024     92.8    628.5   1463.4   428.00      0.0     92.3      0.5      2.3      0.0    103.2       32    199.5    199.5       73     0.000     0.000     0.000     0.000       93        0        0        0        9       23       21    11.424       47     29.5    3.373   -9.900     1.12    0.000    0.000       27        8     2024  Maize_short_Chisinau_7May_Optimum_85_MOHC.PRM
  Tot(45)        7        5     2025    250.4    583.4   1451.0   431.00      0.0    220.9     29.5     18.0      0.0    126.7       58    280.7    279.6       77     0.000     0.000     0.000     0.000      107        0        0        0        4        7       15    17.500       72     39.2    6.865   -9.900     1.69    0.000    0.000       27        8     2025  Maize_short_Chisinau_7May_Optimum_85_MOHC.PRM
  Tot(46)        7        5     2026    155.5    652.6   1477.4   435.00      0.0    150.9      4.6      8.7      0.0    132.5       40    216.9    218.0       72     0.000     0.000     0.000     0.000       95        0        0        0        6       23       21    12.018       49     31.2    3.754   -9.900     1.10    0.000    0.000       27        8     2026  Maize_short_Chisinau_7May_Optimum_85_MOHC.PRM
  Tot(47)        7        5     2027    148.3    551.5   1436.1   438.00      0.0    146.7      1.6     10.1      0.0     99.9       44    256.9    256.6       80     0.000     0.000     0.000     0.000      107        0        0        0        5       15       16    16.998       70     39.8    6.764   -9.900     1.90    0.000    0.000       27        8     2027  Maize_short_Chisinau_7May_Optimum_85_MOHC.PRM
  Tot(48)        7        5     2028     96.5    669.9   1524.6   442.00      0.0     96.3      0.2      0.0      0.0     99.7       31    210.4    210.7       70     0.000     0.000     0.000     0.000       93        0        0        0       10       18       22    11.392       46     29.2    3.331   -9.900     1.08    0.000    0.000       27        8     2028  Maize_short_Chisinau_7May_Optimum_85_MOHC.PRM
  Tot(49)        7        5     2029    143.6    592.2   1481.7   445.00      0.0    142.5      1.1      0.0      0.0    123.0       47    237.6    237.6       77     0.000     0.000     0.000     0.000      101        0        0        0        5       11       20    14.352       58     37.4    5.366   -9.900     1.49    0.000    0.000       27        8     2029  Maize_short_Chisinau_7May_Optimum_85_MOHC.PRM
  Tot(50)        7        5     2030    177.2    587.4   1419.6   449.00      0.0    171.8      5.4     10.3      0.0    133.4       53    244.5    244.5       79     0.000     0.000     0.000     0.000      102        0        0        0       10       10       20    14.800       60     38.4    5.686   -9.900     1.52    0.000    0.000       27        8     2030  Maize_short_Chisinau_7May_Optimum_85_MOHC.PRM
  Tot(51)        7        5     2031     84.7    655.0   1564.8   452.00      0.0     84.4      0.3      0.1      0.0    102.5       27    184.7    184.7       76     0.000     0.000     0.000     0.000       92        0        0        0        6       31       19    10.053       41     29.1    2.927   -9.900     1.03    0.000    0.000       27        8     2031  Maize_short_Chisinau_7May_Optimum_85_MOHC.PRM
  Tot(52)        7        5     2032    249.3    549.2   1426.8   456.00      0.0    237.2     12.1     26.9      0.0    133.8       58    265.1    262.8       82     0.000     0.000     0.000     0.000      107        0        0        0        7       21       11    17.338       71     40.5    7.014   -9.900     1.76    0.000    0.000       27        8     2032  Maize_short_Chisinau_7May_Optimum_85_MOHC.PRM
  Tot(53)        7        5     2033    140.5    638.5   1561.7   460.00      0.0    133.6      6.9     11.6      0.0    118.8       38    220.1    222.5       71     0.000     0.000     0.000     0.000      105        0        0        0        5       27       24    12.327       50     39.5    4.873   -9.900     1.44    0.000    0.000       27        8     2033  Maize_short_Chisinau_7May_Optimum_85_MOHC.PRM
  Tot(54)        7        5     2034     71.4    736.2   1633.5   464.00      0.0     71.1      0.3      0.0      0.0     93.7       22    176.5    176.5       68     0.000     0.000     0.000     0.000       84        0        0        0        7       30       22     8.609       35      8.9    0.766   -9.900     0.29    0.000    0.000       27        8     2034  Maize_short_Chisinau_7May_Optimum_85_MOHC.PRM
  Tot(55)        7        5     2035     94.2    652.4   1464.0   468.00      0.0     83.7     10.5     15.0      0.0     87.5       27    193.5    193.5       70     0.000     0.000     0.000     0.000       92        0        0        0       11       21       22    11.113       45     28.4    3.154   -9.900     1.14    0.000    0.000       27        8     2035  Maize_short_Chisinau_7May_Optimum_85_MOHC.PRM
  Tot(56)        7        5     2036     86.8    699.8   1612.4   472.00      0.0     85.2      1.6      0.0      0.0     81.0       22    220.3    220.3       69     0.000     0.000     0.000     0.000      105        0        0        0        5       29       24    11.639       47     14.4    1.672   -9.900     0.56    0.000    0.000       27        8     2036  Maize_short_Chisinau_7May_Optimum_85_MOHC.PRM
  Tot(57)        7        5     2037    329.8    526.6   1274.5   476.00      0.0    231.0     98.8     52.6      0.0    108.8       55    246.5    246.0       79     0.000     0.000     0.000     0.000      107        0        0        0       17       15       13    15.535       65     40.2    6.245   -9.900     1.76    0.000    0.000       27        8     2037  Maize_short_Chisinau_7May_Optimum_85_MOHC.PRM
  Tot(58)        7        5     2038    281.2    543.1   1467.1   481.00      0.0    219.9     61.3     56.0      0.0    110.2       62    277.9    279.0       80     0.000     0.000     0.000     0.000      107        0        0        0       11        3       17    17.784       72     39.2    6.968   -9.900     1.80    0.000    0.000       27        8     2038  Maize_short_Chisinau_7May_Optimum_85_MOHC.PRM
  Tot(59)        7        5     2039    114.7    691.3   1582.8   485.00      0.0    114.4      0.3      0.0      0.0    120.6       33    203.5    203.9       72     0.000     0.000     0.000     0.000       91        0        0        0        8       24       20    11.080       44     28.0    3.102   -9.900     0.96    0.000    0.000       27        8     2039  Maize_short_Chisinau_7May_Optimum_85_MOHC.PRM
  Tot(60)        7        5     2040     32.3    762.3   1686.1   489.00      0.0     32.3      0.0      0.0      0.0     67.0       12    155.1    155.1       74     0.000     0.000     0.000     0.000       86        0        0        0        1       38       19     7.027       28     23.0    1.618   -9.900     0.73    0.000    0.000       27        8     2040  Maize_short_Chisinau_7May_Optimum_85_MOHC.PRM
  Tot(61)        7        5     2041     72.7    778.8   1666.3   494.00      0.0     71.4      1.3      0.0      0.0     90.7       20    188.6    188.6       68     0.000     0.000     0.000     0.000       89        0        0        0        4       28       22     9.724       39     25.4    2.474   -9.900     0.89    0.000    0.000       27        8     2041  Maize_short_Chisinau_7May_Optimum_85_MOHC.PRM
  Tot(62)        7        5     2042    248.4    633.4   1517.2   499.00      0.0    204.4     44.0     24.6      0.0    123.0       47    280.5    280.5       79     0.000     0.000     0.000     0.000      107        0        0        0        4       12       19    16.263       65     38.8    6.304   -9.900     1.56    0.000    0.000       27        8     2042  Maize_short_Chisinau_7May_Optimum_85_MOHC.PRM
  Tot(63)        7        5     2043     20.3    847.4   1723.7   504.00      0.0     20.3      0.0      0.0      0.0     57.0        9    148.6    148.6       73     0.000     0.000     0.000     0.000       83        0        0        0        5       39       19     6.417       26     19.2    1.234   -9.900     0.63    0.000    0.000       27        8     2043  Maize_short_Chisinau_7May_Optimum_85_MOHC.PRM
  Tot(64)        7        5     2044    159.6    630.1   1560.2   508.00      0.0    155.0      4.6      7.4      0.0    116.5       43    252.2    252.2       77     0.000     0.000     0.000     0.000      102        0        0        0        4        9       20    14.791       59     37.9    5.610   -9.900     1.52    0.000    0.000       27        8     2044  Maize_short_Chisinau_7May_Optimum_85_MOHC.PRM
  Tot(65)        7        5     2045    145.6    619.2   1448.1   513.00      0.0    134.1     11.5     33.3      0.0     92.5       33    205.2    205.2       71     0.000     0.000     0.000     0.000       94        0        0        0        7       18       22    12.124       49     30.1    3.655   -9.900     1.29    0.000    0.000       27        8     2045  Maize_short_Chisinau_7May_Optimum_85_MOHC.PRM
  Tot(66)        7        5     2046    167.1    631.4   1591.2   519.00      0.0    159.6      7.5     14.1      0.0    131.1       46    229.9    229.9       74     0.000     0.000     0.000     0.000       97        0        0        0        5       15       21    13.053       52     33.3    4.350   -9.900     1.22    0.000    0.000       27        8     2046  Maize_short_Chisinau_7May_Optimum_85_MOHC.PRM
  Tot(67)        7        5     2047     66.0    785.6   1769.3   524.00      0.0     65.1      0.9      0.0      0.0     91.8       17    164.8    164.8       73     0.000     0.000     0.000     0.000       84        0        0        0        2       36       20     7.654       30     10.8    0.823   -9.900     0.32    0.000    0.000       27        8     2047  Maize_short_Chisinau_7May_Optimum_85_MOHC.PRM
  Tot(68)        7        5     2048    119.6    650.6   1622.0   529.00      0.0    116.5      3.1      6.0      0.0    123.4       39    198.2    198.2       71     0.000     0.000     0.000     0.000       92        0        0        0        4       21       22    11.530       46     28.4    3.279   -9.900     1.03    0.000    0.000       27        8     2048  Maize_short_Chisinau_7May_Optimum_85_MOHC.PRM
  Tot(69)        7        5     2049     71.5    751.7   1634.0   535.00      0.0     71.4      0.1      0.0      0.0     79.3       19    200.5    200.5       69     0.000     0.000     0.000     0.000       89        0        0        0        2       23       22    10.249       41     25.7    2.631   -9.900     0.95    0.000    0.000       27        8     2049  Maize_short_Chisinau_7May_Optimum_85_MOHC.PRM
  Tot(70)        7        5     2050    105.5    689.9   1669.0   541.00      0.0    104.7      0.8      0.0      0.0     98.9       27    222.5    222.5       75     0.000     0.000     0.000     0.000       97        0        0        0        4       20       20    12.782       51     33.5    4.285   -9.900     1.34    0.000    0.000       27        8     2050  Maize_short_Chisinau_7May_Optimum_85_MOHC.PRM
  Tot(71)        7        5     2051     72.7    644.2   1546.9   546.00      0.0     72.2      0.5      1.7      0.0     84.6       27    193.6    193.6       70     0.000     0.000     0.000     0.000       91        0        0        0        7       22       21    11.078       44     18.6    2.059   -9.900     0.75    0.000    0.000       27        8     2051  Maize_short_Chisinau_7May_Optimum_85_MOHC.PRM
  Tot(72)        7        5     2052    147.6    676.9   1516.7   552.00      0.0    143.2      4.4      5.6      0.0    135.3       38    190.4    190.4       70     0.000     0.000     0.000     0.000       89        0        0        0        8       26       22    10.266       41     25.5    2.614   -9.900     0.86    0.000    0.000       27        8     2052  Maize_short_Chisinau_7May_Optimum_85_MOHC.PRM
  Tot(73)        7        5     2053    107.5    657.8   1631.6   558.00      0.0    106.7      0.8      0.0      0.0    105.9       34    219.6    219.6       72     0.000     0.000     0.000     0.000       97        0        0        0        3       15       21    13.275       52     32.3    4.289   -9.900     1.33    0.000    0.000       27        8     2053  Maize_short_Chisinau_7May_Optimum_85_MOHC.PRM
  Tot(74)        7        5     2054    120.5    675.2   1667.7   564.00      0.0    113.7      6.8     17.6      0.0    108.3       32    196.4    196.4       69     0.000     0.000     0.000     0.000       90        0        0        0        3       23       22    10.859       43     26.3    2.853   -9.900     0.97    0.000    0.000       27        8     2054  Maize_short_Chisinau_7May_Optimum_85_MOHC.PRM
  Tot(75)        7        5     2055     73.2    696.6   1639.2   571.00      0.0     70.2      3.0      2.8      0.0     83.2       23    190.3    190.3       69     0.000     0.000     0.000     0.000       88        0        0        0        6       25       22    10.004       40     24.4    2.442   -9.900     0.91    0.000    0.000       27        8     2055  Maize_short_Chisinau_7May_Optimum_85_MOHC.PRM
  Tot(76)        7        5     2056    214.9    620.0   1503.1   577.00      0.0    151.3     63.6     29.4      0.0     95.2       37    244.5    244.2       74     0.000     0.000     0.000     0.000      107        0        0        0        4        6       19    15.189       61     39.0    5.918   -9.900     1.74    0.000    0.000       27        8     2056  Maize_short_Chisinau_7May_Optimum_85_MOHC.PRM
  Tot(77)        7        5     2057    182.6    587.1   1524.7   583.00      0.0    178.3      4.3      7.5      0.0    123.4       58    271.6    271.8       79     0.000     0.000     0.000     0.000      107        0        0        0        5        3       18    17.546       70     38.9    6.820   -9.900     1.73    0.000    0.000       27        8     2057  Maize_short_Chisinau_7May_Optimum_85_MOHC.PRM
  Tot(78)        7        5     2058     92.0    749.3   1752.0   590.00      0.0     90.4      1.6      2.2      0.0    107.7       25    182.1    182.2       71     0.000     0.000     0.000     0.000       86        0        0        0        2       29       21     9.206       36     22.6    2.082   -9.900     0.72    0.000    0.000       27        8     2058  Maize_short_Chisinau_7May_Optimum_85_MOHC.PRM
  Tot(79)        7        5     2059    175.5    613.4   1607.4   597.00      0.0    175.2      0.3      0.0      0.0    114.7       50    281.2    280.9       78     0.000     0.000     0.000     0.000      107        0        0        0        3        6       16    18.365       73     39.2    7.197   -9.900     1.82    0.000    0.000       27        8     2059  Maize_short_Chisinau_7May_Optimum_85_MOHC.PRM
  Tot(80)        7        5     2060     71.0    814.6   1861.0   604.00      0.0     71.0      0.0      0.0      0.0     97.8       18    172.1    172.5       73     0.000     0.000     0.000     0.000      107        0        0        0        1       35       36     8.135       32     10.9    0.890   -9.900     0.33    0.000    0.000       27        8     2060  Maize_short_Chisinau_7May_Optimum_85_MOHC.PRM
  Tot(81)        7        5     2061     73.6    726.4   1638.6   611.00      0.0     63.7      9.9     16.8      0.0     72.5       18    175.0    175.0       68     0.000     0.000     0.000     0.000       85        0        0        0       10       30       22     8.885       35     18.9    1.679   -9.900     0.68    0.000    0.000       27        8     2061  Maize_short_Chisinau_7May_Optimum_85_MOHC.PRM
  Tot(82)        7        5     2062    107.2    762.2   1789.6   618.00      0.0    101.8      5.4      0.0      0.0     87.5       20    182.5    182.5       69     0.000     0.000     0.000     0.000       88        0        0        0        1       28       21     9.526       38     24.5    2.332   -9.900     0.93    0.000    0.000       27        8     2062  Maize_short_Chisinau_7May_Optimum_85_MOHC.PRM
  Tot(83)        7        5     2063     99.1    686.7   1740.9   625.00      0.0     93.3      5.8      9.6      0.0     96.6       28    202.8    202.8       71     0.000     0.000     0.000     0.000       94        0        0        0        1       19       22    12.098       48     30.2    3.659   -9.900     1.23    0.000    0.000       27        8     2063  Maize_short_Chisinau_7May_Optimum_85_MOHC.PRM
  Tot(84)        7        5     2064    126.0    703.3   1794.6   632.00      0.0    105.3     20.7     21.8      0.0    102.6       25    186.4    186.4       74     0.000     0.000     0.000     0.000       90        0        0        0        2       28       20    10.376       41     27.1    2.817   -9.900     1.01    0.000    0.000       27        8     2064  Maize_short_Chisinau_7May_Optimum_85_MOHC.PRM
  Tot(85)        7        5     2065     45.0    686.0   1704.9   639.00      0.0     45.0      0.0      0.0      0.0     74.8       18    165.9    165.9       75     0.000     0.000     0.000     0.000       89        0        0        0        1       32       19     9.235       37     26.0    2.405   -9.900     1.01    0.000    0.000       27        8     2065  Maize_short_Chisinau_7May_Optimum_85_MOHC.PRM
  Tot(86)        7        5     2066     81.9    715.1   1710.4   647.00      0.0     81.7      0.2      0.0      0.0     95.1       23    191.2    191.2       69     0.000     0.000     0.000     0.000       99        0        0        0        2       32       23    10.455       42     35.5    3.715   -9.900     1.32    0.000    0.000       27        8     2066  Maize_short_Chisinau_7May_Optimum_85_MOHC.PRM
  Tot(87)        7        5     2067    117.5    778.3   1842.3   654.00      0.0    116.2      1.3      1.7      0.0    115.1       27    211.3    211.3       70     0.000     0.000     0.000     0.000       92        0        0        0        0       23       22    10.958       43     28.3    3.099   -9.900     0.96    0.000    0.000       27        8     2067  Maize_short_Chisinau_7May_Optimum_85_MOHC.PRM
  Tot(88)        7        5     2068    144.1    627.3   1656.9   662.00      0.0    140.3      3.8      4.3      0.0     88.1       35    272.7    272.4       78     0.000     0.000     0.000     0.000      107        0        0        0        2       12       17    17.544       69     39.1    6.859   -9.900     1.90    0.000    0.000       27        8     2068  Maize_short_Chisinau_7May_Optimum_85_MOHC.PRM
  Tot(89)        7        5     2069    163.9    641.2   1705.0   669.00      0.0    153.7     10.2     14.2      0.0     90.3       37    274.4    274.6       76     0.000     0.000     0.000     0.000      107        0        0        0        1        3       19    17.321       69     38.6    6.682   -9.900     1.83    0.000    0.000       27        8     2069  Maize_short_Chisinau_7May_Optimum_85_MOHC.PRM
  Tot(90)        7        5     2070     82.4    731.5   1756.0   677.00      0.0     73.7      8.7     16.7      0.0     80.4       20    185.2    185.3       68     0.000     0.000     0.000     0.000       91        0        0        0        3       23       22    10.856       43     27.3    2.968   -9.900     1.12    0.000    0.000       27        8     2070  Maize_short_Chisinau_7May_Optimum_85_MOHC.PRM
  Tot(91)        7        5     2071     58.4    750.9   1762.9   685.00      0.0     58.4      0.0      0.0      0.0     72.9       18    192.7    192.7       69     0.000     0.000     0.000     0.000       89        0        0        0        4       25       22    10.119       40      3.3    0.334   -9.900     0.13    0.000    0.000       27        8     2071  Maize_short_Chisinau_7May_Optimum_85_MOHC.PRM
  Tot(92)        7        5     2072    111.9    710.4   1779.7   693.00      0.0    106.9      5.0     10.6      0.0    101.9       30    208.4    208.4       70     0.000     0.000     0.000     0.000       93        0        0        0        3       18       22    11.916       47     29.5    3.514   -9.900     1.14    0.000    0.000       27        8     2072  Maize_short_Chisinau_7May_Optimum_85_MOHC.PRM
  Tot(93)        7        5     2073    111.4    675.8   1676.5   701.00      0.0    110.5      0.9      1.5      0.0     89.5       30    240.0    240.0       75     0.000     0.000     0.000     0.000      101        0        0        0        2       10       21    14.485       58     36.8    5.337   -9.900     1.64    0.000    0.000       27        8     2073  Maize_short_Chisinau_7May_Optimum_85_MOHC.PRM
  Tot(94)        7        5     2074    116.8    738.3   1725.0   709.00      0.0    111.4      5.4     11.5      0.0    109.8       28    199.8    199.8       70     0.000     0.000     0.000     0.000       92        0        0        0        5       26       22    10.659       42     27.2    2.904   -9.900     0.94    0.000    0.000       27        8     2074  Maize_short_Chisinau_7May_Optimum_85_MOHC.PRM
  Tot(95)        7        5     2075     51.0    750.9   1838.6   717.00      0.0     50.0      1.0      2.1      0.0     79.0       16    165.8    165.8       73     0.000     0.000     0.000     0.000       87        0        0        0        1       34       20     8.505       34     15.3    1.298   -9.900     0.53    0.000    0.000       27        8     2075  Maize_short_Chisinau_7May_Optimum_85_MOHC.PRM
  Tot(96)        7        5     2076    109.5    707.0   1712.3   725.00      0.0    100.7      8.8     24.7      0.0     93.0       24    189.9    189.9       73     0.000     0.000     0.000     0.000       90        0        0        0        8       28       21    10.423       42     15.1    1.576   -9.900     0.56    0.000    0.000       27        8     2076  Maize_short_Chisinau_7May_Optimum_85_MOHC.PRM
  Tot(97)        7        5     2077    122.3    686.4   1697.7   733.00      0.0    110.9     11.4      0.0      0.0     71.7       20    198.3    198.3       72     0.000     0.000     0.000     0.000       95        0        0        0        2       21       21    11.866       48     31.6    3.747   -9.900     1.42    0.000    0.000       27        8     2077  Maize_short_Chisinau_7May_Optimum_85_MOHC.PRM
  Tot(98)        7        5     2078    105.8    615.4   1682.2   742.00      0.0    105.6      0.2      1.7      0.0     91.4       38    228.2    227.5       70     0.000     0.000     0.000     0.000      107        0        0        0        5       14       22    15.289       61     38.5    5.884   -9.900     1.84    0.000    0.000       27        8     2078  Maize_short_Chisinau_7May_Optimum_85_MOHC.PRM
  Tot(99)        7        5     2079    106.7    720.6   1797.6   750.00      0.0    103.3      3.4     12.9      0.0    103.2       28    191.2    191.9       69     0.000     0.000     0.000     0.000       88        0        0        0        4       24       22     9.925       40     14.8    1.467   -9.900     0.50    0.000    0.000       27        8     2079  Maize_short_Chisinau_7May_Optimum_85_MOHC.PRM
 Tot(100)        7        5     2080    138.2    762.4   1854.5   758.00      0.0    138.1      0.1      0.0      0.0    135.0       34    211.7    211.4       68     0.000     0.000     0.000     0.000      107        0        0        0        3       31       25    10.476       42      4.5    0.472   -9.900     0.14    0.000    0.000       27        8     2080  Maize_short_Chisinau_7May_Optimum_85_MOHC.PRM
 Tot(101)        7        5     2081    110.9    736.3   1890.8   767.00      0.0    106.2      4.7      0.0      0.0     96.8       26    225.3    225.6       73     0.000     0.000     0.000     0.000       99        0        0        0        0       20       21    12.892       52     35.2    4.535   -9.900     1.42    0.000    0.000       27        8     2081  Maize_short_Chisinau_7May_Optimum_85_MOHC.PRM
 Tot(102)        7        5     2082    185.1    745.5   1874.9   775.00      0.0    119.7     65.4     55.1      0.0     80.8       21    193.3    193.3       70     0.000     0.000     0.000     0.000       91        0        0        0        1       25       22    10.624       43     27.4    2.911   -9.900     1.07    0.000    0.000       27        8     2082  Maize_short_Chisinau_7May_Optimum_85_MOHC.PRM
 Tot(103)        7        5     2083    102.4    769.3   1818.6   784.00      0.0    100.7      1.7      1.9      0.0    121.8       29    181.7    181.7       68     0.000     0.000     0.000     0.000       88        0        0        0        4       25       22     9.827       40     24.4    2.396   -9.900     0.79    0.000    0.000       27        8     2083  Maize_short_Chisinau_7May_Optimum_85_MOHC.PRM
 Tot(104)        7        5     2084    252.0    637.6   1683.2   792.00      0.0    167.4     84.6    116.4      0.0     67.5       24    197.0    197.0       72     0.000     0.000     0.000     0.000       93        0        0        0        9       21       21    11.713       48     29.7    3.475   -9.900     1.32    0.000    0.000       27        8     2084  Maize_short_Chisinau_7May_Optimum_85_MOHC.PRM
 Tot(105)        7        5     2085    133.7    753.1   1892.6   801.00      0.0    126.8      6.9     15.3      0.0    126.7       29    179.6    179.6       73     0.000     0.000     0.000     0.000       88        0        0        0        1       30       20     9.426       38     23.8    2.244   -9.900     0.77    0.000    0.000       27        8     2085  Maize_short_Chisinau_7May_Optimum_85_MOHC.PRM
 Tot(106)        7        5     2086     61.3    757.1   1877.5   810.00      0.0     61.3      0.0      0.0      0.0     88.9       20    180.2    180.2       71     0.000     0.000     0.000     0.000       92        0        0        0        1       27       20    10.274       42      4.8    0.497   -9.900     0.19    0.000    0.000       27        8     2086  Maize_short_Chisinau_7May_Optimum_85_MOHC.PRM
 Tot(107)        7        5     2087     20.6    863.4   1971.2   818.00      0.0     20.6      0.0      0.0      0.0     57.4        9    156.6    156.6       73     0.000     0.000     0.000     0.000       88        0        0        0        0       37       19     7.361       30     14.0    1.033   -9.900     0.50    0.000    0.000       27        8     2087  Maize_short_Chisinau_7May_Optimum_85_MOHC.PRM
 Tot(108)        7        5     2088     24.8    882.1   1928.8   827.00      0.0     24.8      0.0      0.0      0.0     61.1        9    148.3    148.3       75     0.000     0.000     0.000     0.000       85        0        0        0        0       39       18     6.508       26     12.6    0.823   -9.900     0.40    0.000    0.000       27        8     2088  Maize_short_Chisinau_7May_Optimum_85_MOHC.PRM
 Tot(109)        7        5     2089     50.3    828.5   1916.0   836.00      0.0     50.2      0.1      0.0      0.0     63.2       12    176.5    176.5       71     0.000     0.000     0.000     0.000       86        0        0        0        2       31       21     8.452       34     -9.9    0.000   -9.900     0.00    0.000    0.000       27        8     2089  Maize_short_Chisinau_7May_Optimum_85_MOHC.PRM
 Tot(110)        7        5     2090    145.8    722.8   1795.8   845.00      0.0    130.3     15.5     34.2      0.0     96.2       30    215.3    215.3       70     0.000     0.000     0.000     0.000       94        0        0        0        2       16       22    12.078       49     30.3    3.664   -9.900     1.18    0.000    0.000       27        8     2090  Maize_short_Chisinau_7May_Optimum_85_MOHC.PRM
 Tot(111)        7        5     2091     58.1    864.0   1918.9   854.00      0.0     58.1      0.0      0.0      0.0     83.6       15    168.9    168.9       70     0.000     0.000     0.000     0.000       83        0        0        0        0       34       22     7.753       32     10.3    0.799   -9.900     0.32    0.000    0.000       27        8     2091  Maize_short_Chisinau_7May_Optimum_85_MOHC.PRM
 Tot(112)        7        5     2092     92.3    827.5   1844.4   863.00      0.0     86.2      6.1     23.6      0.0     82.4       16    177.7    177.7       71     0.000     0.000     0.000     0.000       86        0        0        0        4       31       21     8.522       35     12.0    1.027   -9.900     0.40    0.000    0.000       27        8     2092  Maize_short_Chisinau_7May_Optimum_85_MOHC.PRM
 Tot(113)        7        5     2093     75.6    841.8   1923.3   872.00      0.0     74.4      1.2      1.3      0.0    100.7       19    175.2    175.2       69     0.000     0.000     0.000     0.000       89        0        0        0        0       32       22     8.810       36      0.8    0.067   -9.900     0.02    0.000    0.000       27        8     2093  Maize_short_Chisinau_7May_Optimum_85_MOHC.PRM
 Tot(114)        7        5     2094     33.2    825.9   1947.9   881.00      0.0     33.2      0.0      0.0      0.0     67.8       12    155.8    155.8       75     0.000     0.000     0.000     0.000       86        0        0        0        1       37       19     7.452       31     23.0    1.717   -9.900     0.77    0.000    0.000       27        8     2094  Maize_short_Chisinau_7May_Optimum_85_MOHC.PRM
 Tot(115)        7        5     2095     31.1    844.4   1927.2   890.00      0.0     31.1      0.0      0.0      0.0     63.6       12    161.8    161.8       68     0.000     0.000     0.000     0.000       84        0        0        0        1       33       21     7.762       32      0.0    0.003   -9.900     0.00    0.000    0.000       27        8     2095  Maize_short_Chisinau_7May_Optimum_85_MOHC.PRM
 Tot(116)        7        5     2096    127.4    770.9   1894.2   899.00      0.0    114.2     13.2     17.5      0.0    119.9       26    175.8    175.8       75     0.000     0.000     0.000     0.000       88        0        0        0        3       30       20     9.340       39     25.3    2.364   -9.900     0.80    0.000    0.000       27        8     2096  Maize_short_Chisinau_7May_Optimum_85_MOHC.PRM
 Tot(117)        7        5     2097    108.8    781.1   1882.5   908.00      0.0    107.2      1.6      0.0      0.0    122.7       25    169.9    169.8       71     0.000     0.000     0.000     0.000      107        0        0        0        1       33       21     8.367       35     16.8    1.405   -9.900     0.48    0.000    0.000       27        8     2097  Maize_short_Chisinau_7May_Optimum_85_MOHC.PRM
 Tot(118)        7        5     2098     53.1    787.7   1904.4   917.00      0.0     53.1      0.0      0.0      0.0     81.0       18    175.3    175.4       69     0.000     0.000     0.000     0.000       89        0        0        0        2       28       22     9.203       38     16.8    1.545   -9.900     0.61    0.000    0.000       27        8     2098  Maize_short_Chisinau_7May_Optimum_85_MOHC.PRM
 Tot(119)        7        5     2099    119.6    643.8   1777.4   927.00      0.0    115.6      4.0      0.0      0.0     91.6       37    247.8    247.6       76     0.000     0.000     0.000     0.000      107        0        0        0        1       10       18    16.575       69     39.0    6.472   -9.900     1.91    0.000    0.000       27        8     2099  Maize_short_Chisinau_7May_Optimum_85_MOHC.PRM
