AquaCrop 7.0 (August 2022) - Output created on (date) : 23-11-2022   at (time) : 12:02:20

    RunNr     Day1   Month1    Year1     Rain      ETo       GD     CO2      Irri   Infilt   Runoff    Drain   Upflow        E     E/Ex       Tr      TrW   Tr/Trx    SaltIn   SaltOut    SaltUp  SaltProf     Cycle   SaltStr  FertStr  WeedStr  TempStr   ExpStr   StoStr  BioMass  Brelative   HI    Y(dry)  Y(fresh)    WPet      Bin     Bout     DayN   MonthN    YearN
                                           mm       mm  degC.day    ppm        mm       mm       mm       mm       mm       mm        %       mm       mm        %    ton/ha    ton/ha    ton/ha    ton/ha      days       %        %        %        %        %        %    ton/ha        %       %    ton/ha   ton/ha    kg/m3   ton/ha   ton/ha
   Tot(1)        6        6     1981    199.9    451.3   1202.5   340.11      0.0    168.9     31.0      0.0      0.0     98.0       45    218.0    169.4       95     0.000     0.000     0.000     0.000      107        0       42       25       17       16        2    13.099       69     40.8    5.349   -9.900     1.69    0.000    0.000       26        9     1981  Maize_short_Chisinau_6June_NonOptimum_85_NCC.PRM
   Tot(2)        6        6     1982    192.1    427.5   1217.6   341.22      0.0    191.6      0.5      0.0      0.0    140.8       75    245.0    190.5       99     0.000     0.000     0.000     0.000      107        0       42       25       10        1        1    16.210       74     40.1    6.500   -9.900     1.68    0.000    0.000       26        9     1982  Maize_short_Chisinau_6June_NonOptimum_85_NCC.PRM
   Tot(3)        6        6     1983    262.8    443.0   1188.8   342.84      0.0    240.7     22.1     39.3      0.0    123.0       64    240.7    186.9      100     0.000     0.000     0.000     0.000      107        0       42       25       12        2        0    15.370       75     40.0    6.150   -9.900     1.69    0.000    0.000       26        9     1983  Maize_short_Chisinau_6June_NonOptimum_85_NCC.PRM
   Tot(4)        6        6     1984    184.6    423.3   1101.0   344.40      0.0    181.4      3.2      7.2      0.0    136.9       71    220.8    170.5       99     0.000     0.000     0.000     0.000      107        0       42       25       16        6        1    15.077       74     40.3    6.076   -9.900     1.70    0.000    0.000       26        9     1984  Maize_short_Chisinau_6June_NonOptimum_85_NCC.PRM
   Tot(5)        6        6     1985    281.0    437.5   1120.2   345.87      0.0    247.3     33.7     63.0      0.0    137.1       76    236.2    184.7       97     0.000     0.000     0.000     0.000      107        0       42       25       20        4        2    13.912       73     40.2    5.592   -9.900     1.50    0.000    0.000       26        9     1985  Maize_short_Chisinau_6June_NonOptimum_85_NCC.PRM
   Tot(6)        6        6     1986    165.0    499.0   1263.3   347.19      0.0    162.3      2.7      5.9      0.0    118.1       52    247.8    192.8       93     0.000     0.000     0.000     0.000      107        0       42       25       13        7        8    13.743       67     40.2    5.527   -9.900     1.51    0.000    0.000       26        9     1986  Maize_short_Chisinau_6June_NonOptimum_85_NCC.PRM
   Tot(7)        6        6     1987    220.8    477.8   1198.4   348.98      0.0    212.1      8.7     13.2      0.0    114.5       50    234.2    181.1      100     0.000     0.000     0.000     0.000      107        0       42       25       15        5        0    14.236       75     40.2    5.719   -9.900     1.64    0.000    0.000       26        9     1987  Maize_short_Chisinau_6June_NonOptimum_85_NCC.PRM
   Tot(8)        6        6     1988    230.8    451.7   1243.1   351.45      0.0    200.8     30.0      1.9      0.0    101.3       48    241.5    188.8       99     0.000     0.000     0.000     0.000      107        0       42       25       14        9        0    14.703       73     40.5    5.954   -9.900     1.74    0.000    0.000       26        9     1988  Maize_short_Chisinau_6June_NonOptimum_85_NCC.PRM
   Tot(9)        6        6     1989    317.2    425.1   1179.8   352.89      0.0    284.4     32.8     13.0      0.0    118.7       59    221.5    172.2      100     0.000     0.000     0.000     0.000      107        0       42       25       14        2        0    14.847       75     40.1    5.948   -9.900     1.75    0.000    0.000       26        9     1989  Maize_short_Chisinau_6June_NonOptimum_85_NCC.PRM
  Tot(10)        6        6     1990    132.3    476.7   1149.2   354.16      0.0    130.1      2.2      3.3      0.0    118.7       50    204.5    161.3       91     0.000     0.000     0.000     0.000      107        0       42       25       17       14       10    11.760       62     40.5    4.758   -9.900     1.47    0.000    0.000       26        9     1990  Maize_short_Chisinau_6June_NonOptimum_85_NCC.PRM
  Tot(11)        6        6     1991    275.4    418.6   1253.8   355.48      0.0    261.5     13.9     18.7      0.0    129.6       66    218.7    169.0      100     0.000     0.000     0.000     0.000      107        0       42       25       11        1        0    15.257       75     40.0    6.105   -9.900     1.75    0.000    0.000       26        9     1991  Maize_short_Chisinau_6June_NonOptimum_85_NCC.PRM
  Tot(12)        6        6     1992    150.7    509.8   1276.3   356.27      0.0    145.6      5.1     13.2      0.0    120.0       50    218.1    173.2       83     0.000     0.000     0.000     0.000      107        0       42       25       13       19       15    11.171       55     40.5    4.524   -9.900     1.34    0.000    0.000       26        9     1992  Maize_short_Chisinau_6June_NonOptimum_85_NCC.PRM
  Tot(13)        6        6     1993    182.1    473.1   1085.2   356.95      0.0    180.2      1.9      0.0      0.0    113.6       50    223.8    173.6       97     0.000     0.000     0.000     0.000      107        0       42       25       21       12        1    13.129       71     40.6    5.328   -9.900     1.58    0.000    0.000       26        9     1993  Maize_short_Chisinau_6June_NonOptimum_85_NCC.PRM
  Tot(14)        6        6     1994    231.2    503.3   1362.6   358.63      0.0    182.4     48.8     16.1      0.0     83.3       33    262.5    206.0       97     0.000     0.000     0.000     0.000      107        0       42       25        4       21        2    15.529       68     40.9    6.354   -9.900     1.84    0.000    0.000       26        9     1994  Maize_short_Chisinau_6June_NonOptimum_85_NCC.PRM
  Tot(15)        6        6     1995    234.6    464.0   1267.5   360.62      0.0    221.2     13.4      0.0      0.0    105.9       47    237.4    186.1      100     0.000     0.000     0.000     0.000      107        0       42       25       12        6        0    14.894       74     40.3    6.002   -9.900     1.75    0.000    0.000       26        9     1995  Maize_short_Chisinau_6June_NonOptimum_85_NCC.PRM
  Tot(16)        6        6     1996    265.4    465.3   1136.8   362.37      0.0    227.9     37.5      0.0      0.0     93.6       35    193.4    151.9       99     0.000     0.000     0.000     0.000      107        0       42       25       23       17        0    12.330       70     40.7    5.021   -9.900     1.75    0.000    0.000       26        9     1996  Maize_short_Chisinau_6June_NonOptimum_85_NCC.PRM
  Tot(17)        6        6     1997    315.0    407.4   1143.8   363.47      0.0    294.3     20.7      7.2      0.0    131.8       67    192.3    149.5      100     0.000     0.000     0.000     0.000      107        0       42       25       17        1        0    14.118       75     40.0    5.647   -9.900     1.74    0.000    0.000       26        9     1997  Maize_short_Chisinau_6June_NonOptimum_85_NCC.PRM
  Tot(18)        6        6     1998    223.6    463.9   1226.6   366.50      0.0    217.1      6.5      0.0      0.0    129.6       63    237.8    184.4       97     0.000     0.000     0.000     0.000      107        0       42       25       16        9        2    13.879       71     40.6    5.628   -9.900     1.53    0.000    0.000       26        9     1998  Maize_short_Chisinau_6June_NonOptimum_85_NCC.PRM
  Tot(19)        6        6     1999    153.2    491.5   1394.7   368.14      0.0    151.2      2.0      1.9      0.0    114.9       46    237.4    186.0       95     0.000     0.000     0.000     0.000      107        0       42       25        7       15        5    14.664       68     40.5    5.939   -9.900     1.69    0.000    0.000       26        9     1999  Maize_short_Chisinau_6June_NonOptimum_85_NCC.PRM
  Tot(20)        6        6     2000    210.5    500.1   1200.6   369.41      0.0    203.8      6.7      0.0      0.0     93.1       37    248.7    194.4       99     0.000     0.000     0.000     0.000      107        0       42       25       18        7        0    14.336       73     40.3    5.781   -9.900     1.69    0.000    0.000       26        9     2000  Maize_short_Chisinau_6June_NonOptimum_85_NCC.PRM
  Tot(21)        6        6     2001    206.9    490.4   1341.7   371.07      0.0    193.1     13.8      1.1      0.0    112.9       49    231.8    182.2       89     0.000     0.000     0.000     0.000      107        0       42       25        9       17        7    13.189       61     40.7    5.364   -9.900     1.56    0.000    0.000       26        9     2001  Maize_short_Chisinau_6June_NonOptimum_85_NCC.PRM
  Tot(22)        6        6     2002    290.9    484.3   1361.3   373.16      0.0    261.3     29.6     17.0      0.0     92.9       37    246.0    191.1      100     0.000     0.000     0.000     0.000      107        0       42       25        8        4        0    15.735       73     40.0    6.294   -9.900     1.86    0.000    0.000       26        9     2002  Maize_short_Chisinau_6June_NonOptimum_85_NCC.PRM
  Tot(23)        6        6     2003    217.4    513.0   1265.0   375.80      0.0    213.7      3.7      0.0      0.0    117.9       48    262.4    204.0      100     0.000     0.000     0.000     0.000      107        0       42       25       13        3        0    15.257       74     40.1    6.120   -9.900     1.61    0.000    0.000       26        9     2003  Maize_short_Chisinau_6June_NonOptimum_85_NCC.PRM
  Tot(24)        6        6     2004    185.9    481.7   1215.0   377.49      0.0    178.0      7.9     18.8      0.0     87.9       36    237.4    184.1      100     0.000     0.000     0.000     0.000      107        0       42       25       12        5        0    15.117       74     40.2    6.077   -9.900     1.87    0.000    0.000       26        9     2004  Maize_short_Chisinau_6June_NonOptimum_85_NCC.PRM
  Tot(25)        6        6     2005    243.9    464.2   1283.3   379.80      0.0    230.6     13.3     16.9      0.0    122.7       58    259.9    201.0      100     0.000     0.000     0.000     0.000      107        0       42       25        7        7        0    16.529       74     40.2    6.646   -9.900     1.74    0.000    0.000       26        9     2005  Maize_short_Chisinau_6June_NonOptimum_85_NCC.PRM
  Tot(26)        6        6     2006    224.5    508.3   1271.8   381.90      0.0    219.8      4.7      9.9      0.0    115.6       47    268.5    209.8      100     0.000     0.000     0.000     0.000      107        0       42       25        9        9        0    15.872       73     40.3    6.391   -9.900     1.66    0.000    0.000       26        9     2006  Maize_short_Chisinau_6June_NonOptimum_85_NCC.PRM
  Tot(27)        6        6     2007    158.6    581.7   1358.0   383.77      0.0    158.1      0.5      0.0      0.0    110.8       32    235.1    188.2       95     0.000     0.000     0.000     0.000      107        0       42       25       11       21        3    12.887       62     40.3    5.188   -9.900     1.50    0.000    0.000       26        9     2007  Maize_short_Chisinau_6June_NonOptimum_85_NCC.PRM
  Tot(28)        6        6     2008    239.5    514.8   1289.7   385.59      0.0    227.2     12.3      4.8      0.0    119.9       47    250.8    196.4       94     0.000     0.000     0.000     0.000      107        0       42       25       14        6        4    13.658       68     40.2    5.485   -9.900     1.48    0.000    0.000       26        9     2008  Maize_short_Chisinau_6June_NonOptimum_85_NCC.PRM
  Tot(29)        6        6     2009    175.7    556.7   1379.5   387.37      0.0    173.5      2.2      0.0      0.0    116.2       42    265.1    207.4       91     0.000     0.000     0.000     0.000      107        0       42       25        6       10        8    14.406       64     40.2    5.791   -9.900     1.52    0.000    0.000       26        9     2009  Maize_short_Chisinau_6June_NonOptimum_85_NCC.PRM
  Tot(30)        6        6     2010    248.7    490.7   1382.9   389.85      0.0    230.1     18.6     30.3      0.0    125.5       55    241.0    187.5       91     0.000     0.000     0.000     0.000      107        0       42       25       11       12        5    14.053       66     40.6    5.709   -9.900     1.56    0.000    0.000       26        9     2010  Maize_short_Chisinau_6June_NonOptimum_85_NCC.PRM
  Tot(31)        6        6     2011    205.0    522.5   1358.5   391.63      0.0    185.1     19.9     29.8      0.0    141.0       56    230.2    181.5       84     0.000     0.000     0.000     0.000      107        0       42       25        7       11       16    12.567       54     40.0    5.022   -9.900     1.35    0.000    0.000       26        9     2011  Maize_short_Chisinau_6June_NonOptimum_85_NCC.PRM
  Tot(32)        6        6     2012    146.0    597.2   1443.1   393.82      0.0    144.1      1.9      3.1      0.0     98.3       30    244.6    192.7       88     0.000     0.000     0.000     0.000      107        0       42       25        5       21       11    12.352       55     40.2    4.969   -9.900     1.45    0.000    0.000       26        9     2012  Maize_short_Chisinau_6June_NonOptimum_85_NCC.PRM
  Tot(33)        6        6     2013    345.4    493.2   1303.2   396.48      0.0    292.7     52.7     37.3      0.0    119.6       50    240.9    188.9       97     0.000     0.000     0.000     0.000      107        0       42       25       12       10        2    14.447       70     40.5    5.850   -9.900     1.62    0.000    0.000       26        9     2013  Maize_short_Chisinau_6June_NonOptimum_85_NCC.PRM
  Tot(34)        6        6     2014    170.9    550.3   1350.4   398.55      0.0    169.2      1.7      0.0      0.0    105.2       42    270.6    211.2       89     0.000     0.000     0.000     0.000      107        0       42       25        9       10       10    14.068       64     40.2    5.654   -9.900     1.50    0.000    0.000       26        9     2014  Maize_short_Chisinau_6June_NonOptimum_85_NCC.PRM
  Tot(35)        6        6     2015    125.4    579.0   1437.4   402.00      0.0    124.8      0.6      0.0      0.0    129.4       40    205.3    162.9       81     0.000     0.000     0.000     0.000      102        0       42       25        5       24       18    10.104       44     39.3    3.974   -9.900     1.20    0.000    0.000       26        9     2015  Maize_short_Chisinau_6June_NonOptimum_85_NCC.PRM
  Tot(36)        6        6     2016    160.2    553.8   1415.3   404.00      0.0    154.0      6.2     12.5      0.0    129.1       43    213.2    168.6       82     0.000     0.000     0.000     0.000      107        0       42       25        8       21       15    11.079       50     40.2    4.451   -9.900     1.30    0.000    0.000       26        9     2016  Maize_short_Chisinau_6June_NonOptimum_85_NCC.PRM
  Tot(37)        6        6     2017    253.3    534.3   1396.1   407.00      0.0    233.1     20.2     24.7      0.0    138.7       58    279.8    217.1       93     0.000     0.000     0.000     0.000      107        0       42       25        6        4        7    15.415       68     39.9    6.158   -9.900     1.47    0.000    0.000       26        9     2017  Maize_short_Chisinau_6June_NonOptimum_85_NCC.PRM
  Tot(38)        6        6     2018    286.1    507.8   1446.5   410.00      0.0    269.1     17.0     27.6      0.0    155.4       69    278.5    216.4       94     0.000     0.000     0.000     0.000      107        0       42       25        6        2        4    16.183       70     40.1    6.485   -9.900     1.49    0.000    0.000       26        9     2018  Maize_short_Chisinau_6June_NonOptimum_85_NCC.PRM
  Tot(39)        6        6     2019    156.4    558.4   1419.7   413.00      0.0    153.3      3.1      1.1      0.0    117.3       42    245.5    191.8       86     0.000     0.000     0.000     0.000      107        0       42       25        7        9       15    13.077       58     39.7    5.186   -9.900     1.43    0.000    0.000       26        9     2019  Maize_short_Chisinau_6June_NonOptimum_85_NCC.PRM
  Tot(40)        6        6     2020     68.7    580.0   1318.2   416.00      0.0     68.7      0.0      0.0      0.0     94.0       27    181.9    145.6       78     0.000     0.000     0.000     0.000       96        0       42       25        5       28       18     8.755       41     33.2    2.906   -9.900     1.06    0.000    0.000       26        9     2020  Maize_short_Chisinau_6June_NonOptimum_85_NCC.PRM
  Tot(41)        6        6     2021    112.9    538.9   1265.8   419.00      0.0    110.6      2.3      0.2      0.0    118.7       41    199.4    158.5       82     0.000     0.000     0.000     0.000      107        0       42       25       11       27       19     9.990       45     40.4    4.035   -9.900     1.27    0.000    0.000       26        9     2021  Maize_short_Chisinau_6June_NonOptimum_85_NCC.PRM
  Tot(42)        6        6     2022    128.0    456.4   1112.3   422.00      0.0    127.8      0.2      0.0      0.0    109.9       53    203.4    158.8       88     0.000     0.000     0.000     0.000      107        0       42       25       20       13       10    11.875       61     40.6    4.817   -9.900     1.54    0.000    0.000       26        9     2022  Maize_short_Chisinau_6June_NonOptimum_85_NCC.PRM
  Tot(43)        6        6     2023    148.8    500.9   1105.2   425.00      0.0    138.3     10.5      2.6      0.0     82.1       31    214.6    170.0      100     0.000     0.000     0.000     0.000      107        0       42       25       22       21        0    12.504       69     40.5    5.069   -9.900     1.71    0.000    0.000       26        9     2023  Maize_short_Chisinau_6June_NonOptimum_85_NCC.PRM
  Tot(44)        6        6     2024     87.5    609.0   1374.1   428.00      0.0     85.1      2.4      2.3      0.0    103.1       27    174.5    140.3       79     0.000     0.000     0.000     0.000       92        0       42       25        5       32       18     7.675       35     29.2    2.242   -9.900     0.82    0.000    0.000       26        9     2024  Maize_short_Chisinau_6June_NonOptimum_85_NCC.PRM
  Tot(45)        6        6     2025    143.1    513.0   1293.5   431.00      0.0    141.6      1.5      0.2      0.0    146.0       56    208.8    164.4       84     0.000     0.000     0.000     0.000      105        0       42       25        7       17       17    11.635       51     40.2    4.682   -9.900     1.32    0.000    0.000       26        9     2025  Maize_short_Chisinau_6June_NonOptimum_85_NCC.PRM
  Tot(46)        6        6     2026    169.0    447.8   1084.3   435.00      0.0    161.8      7.2      8.7      0.0    107.5       54    231.5    177.4      100     0.000     0.000     0.000     0.000      107        0       42       25       18        3        0    15.512       75     40.1    6.223   -9.900     1.84    0.000    0.000       26        9     2026  Maize_short_Chisinau_6June_NonOptimum_85_NCC.PRM
  Tot(47)        6        6     2027     39.6    549.7   1227.9   438.00      0.0     39.6      0.0      0.0      0.0     65.1       21    179.6    145.1       79     0.000     0.000     0.000     0.000       98        0       42       25       12       27       18     9.075       42     35.3    3.207   -9.900     1.34    0.000    0.000       26        9     2027  Maize_short_Chisinau_6June_NonOptimum_85_NCC.PRM
  Tot(48)        6        6     2028     79.5    575.4   1332.7   442.00      0.0     79.0      0.5      0.0      0.0     94.1       28    183.2    145.9       77     0.000     0.000     0.000     0.000      101        0       42       25        8       26       17     8.913       41     38.4    3.419   -9.900     1.24    0.000    0.000       26        9     2028  Maize_short_Chisinau_6June_NonOptimum_85_NCC.PRM
  Tot(49)        6        6     2029     70.3    578.7   1279.9   445.00      0.0     70.0      0.3      0.0      0.0     86.7       24    172.7    138.7       79     0.000     0.000     0.000     0.000       95        0       42       25       10       31       17     8.231       38     32.3    2.657   -9.900     1.07    0.000    0.000       26        9     2029  Maize_short_Chisinau_6June_NonOptimum_85_NCC.PRM
  Tot(50)        6        6     2030     81.7    630.0   1441.1   449.00      0.0     80.1      1.6      4.7      0.0     91.5       21    172.3    140.1       82     0.000     0.000     0.000     0.000       99        0       42       25        4       35       16     8.026       36     36.4    2.921   -9.900     1.14    0.000    0.000       26        9     2030  Maize_short_Chisinau_6June_NonOptimum_85_NCC.PRM
  Tot(51)        6        6     2031     64.4    565.8   1239.1   452.00      0.0     64.4      0.0      0.0      0.0     90.6       27    174.6    139.7       79     0.000     0.000     0.000     0.000       97        0       42       25       11       29       18     8.228       40     34.3    2.822   -9.900     1.07    0.000    0.000       26        9     2031  Maize_short_Chisinau_6June_NonOptimum_85_NCC.PRM
  Tot(52)        6        6     2032     86.3    578.5   1297.3   456.00      0.0     86.0      0.3      0.0      0.0     91.2       26    190.3    152.5       84     0.000     0.000     0.000     0.000      107        0       42       25       16       31       12     9.461       47     40.7    3.850   -9.900     1.37    0.000    0.000       26        9     2032  Maize_short_Chisinau_6June_NonOptimum_85_NCC.PRM
  Tot(53)        6        6     2033     54.3    586.6   1333.4   460.00      0.0     54.3      0.0      0.0      0.0     78.0       22    171.7    137.7       78     0.000     0.000     0.000     0.000       94        0       42       25        6       29       18     8.219       38     31.4    2.583   -9.900     1.09    0.000    0.000       26        9     2033  Maize_short_Chisinau_6June_NonOptimum_85_NCC.PRM
  Tot(54)        6        6     2034     62.0    525.1   1243.9   464.00      0.0     61.9      0.1      0.0      0.0     76.6       27    194.0    153.9       86     0.000     0.000     0.000     0.000      107        0       42       25       14       24       14    11.480       55     40.6    4.658   -9.900     1.72    0.000    0.000       26        9     2034  Maize_short_Chisinau_6June_NonOptimum_85_NCC.PRM
  Tot(55)        6        6     2035     90.2    610.7   1390.4   468.00      0.0     82.5      7.7     13.4      0.0     90.2       26    184.6    147.3       75     0.000     0.000     0.000     0.000       92        0       42       25        8       25       19     8.462       37     29.0    2.452   -9.900     0.90    0.000    0.000       26        9     2035  Maize_short_Chisinau_6June_NonOptimum_85_NCC.PRM
  Tot(56)        6        6     2036    173.4    466.5   1117.3   472.00      0.0    171.8      1.6      0.0      0.0    118.2       56    219.7    170.9       97     0.000     0.000     0.000     0.000      107        0       42       25       23        8        2    13.584       72     40.5    5.500   -9.900     1.63    0.000    0.000       26        9     2036  Maize_short_Chisinau_6June_NonOptimum_85_NCC.PRM
  Tot(57)        6        6     2037    216.0    536.9   1353.8   476.00      0.0    201.1     14.9     23.4      0.0    114.4       44    249.2    195.3       92     0.000     0.000     0.000     0.000      107        0       42       25       10       23        5    14.264       64     40.9    5.830   -9.900     1.60    0.000    0.000       26        9     2037  Maize_short_Chisinau_6June_NonOptimum_85_NCC.PRM
  Tot(58)        6        6     2038    102.4    625.9   1500.2   481.00      0.0    100.9      1.5      1.2      0.0    106.6       28    174.3    140.6       75     0.000     0.000     0.000     0.000       91        0       42       25        1       29       19     7.938       33     28.3    2.249   -9.900     0.82    0.000    0.000       26        9     2038  Maize_short_Chisinau_6June_NonOptimum_85_NCC.PRM
  Tot(59)        6        6     2039    110.6    586.1   1356.9   485.00      0.0    109.9      0.7      0.0      0.0    118.1       34    184.1    147.1       79     0.000     0.000     0.000     0.000      107        0       42       25        9       27       18     9.208       41     40.4    3.720   -9.900     1.23    0.000    0.000       26        9     2039  Maize_short_Chisinau_6June_NonOptimum_85_NCC.PRM
  Tot(60)        6        6     2040    116.9    575.1   1322.2   489.00      0.0    114.7      2.2      2.4      0.0    108.3       33    189.6    151.5       79     0.000     0.000     0.000     0.000      107        0       42       25       11       28       12     9.569       45     40.5    3.875   -9.900     1.30    0.000    0.000       26        9     2040  Maize_short_Chisinau_6June_NonOptimum_85_NCC.PRM
  Tot(61)        6        6     2041    170.3    520.7   1294.5   494.00      0.0    154.8     15.5     28.0      0.0    125.4       54    213.5    168.4       79     0.000     0.000     0.000     0.000      107        0       42       25        9       19       18    11.629       51     40.2    4.680   -9.900     1.38    0.000    0.000       26        9     2041  Maize_short_Chisinau_6June_NonOptimum_85_NCC.PRM
  Tot(62)        6        6     2042     27.7    682.5   1581.0   499.00      0.0     27.7      0.0      0.0      0.0     57.4       12    161.1    131.0       79     0.000     0.000     0.000     0.000       96        0       42       25        3       35       17     7.060       30     32.4    2.285   -9.900     1.07    0.000    0.000       26        9     2042  Maize_short_Chisinau_6June_NonOptimum_85_NCC.PRM
  Tot(63)        6        6     2043     86.8    544.2   1378.9   504.00      0.0     86.8      0.0      0.0      0.0     78.1       28    217.6    171.5       82     0.000     0.000     0.000     0.000      107        0       42       25       10       17       14    12.374       54     40.1    4.967   -9.900     1.68    0.000    0.000       26        9     2043  Maize_short_Chisinau_6June_NonOptimum_85_NCC.PRM
  Tot(64)        6        6     2044    162.1    520.8   1221.0   508.00      0.0    158.2      3.9      9.8      0.0    128.4       49    208.2    163.9       86     0.000     0.000     0.000     0.000      107        0       42       25       18       23        8    11.358       57     40.7    4.627   -9.900     1.37    0.000    0.000       26        9     2044  Maize_short_Chisinau_6June_NonOptimum_85_NCC.PRM
  Tot(65)        6        6     2045     85.6    573.2   1307.6   513.00      0.0     85.4      0.2      0.0      0.0    106.7       31    175.4    141.2       79     0.000     0.000     0.000     0.000      100        0       42       25       11       30       17     8.408       39     36.4    3.061   -9.900     1.09    0.000    0.000       26        9     2045  Maize_short_Chisinau_6June_NonOptimum_85_NCC.PRM
  Tot(66)        6        6     2046     89.6    586.5   1421.5   519.00      0.0     88.4      1.2      2.2      0.0    104.0       30    177.5    141.6       76     0.000     0.000     0.000     0.000       94        0       42       25        5       27       19     8.737       39     31.1    2.715   -9.900     0.98    0.000    0.000       26        9     2046  Maize_short_Chisinau_6June_NonOptimum_85_NCC.PRM
  Tot(67)        6        6     2047     56.3    546.7   1311.4   524.00      0.0     56.3      0.0      0.0      0.0     76.3       25    181.8    144.4       79     0.000     0.000     0.000     0.000      100        0       42       25       10       24       18     9.750       45     37.2    3.627   -9.900     1.41    0.000    0.000       26        9     2047  Maize_short_Chisinau_6June_NonOptimum_85_NCC.PRM
  Tot(68)        6        6     2048    127.3    572.9   1378.0   529.00      0.0    106.4     20.9     49.4      0.0     81.6       26    178.1    141.7       77     0.000     0.000     0.000     0.000       92        0       42       25        8       27       19     8.533       36     29.1    2.482   -9.900     0.96    0.000    0.000       26        9     2048  Maize_short_Chisinau_6June_NonOptimum_85_NCC.PRM
  Tot(69)        6        6     2049     60.0    529.3   1277.6   535.00      0.0     60.0      0.0      0.0      0.0     79.3       27    192.3    152.3       84     0.000     0.000     0.000     0.000      105        0       42       25        9       21       17    11.168       50     40.2    4.491   -9.900     1.65    0.000    0.000       26        9     2049  Maize_short_Chisinau_6June_NonOptimum_85_NCC.PRM
  Tot(70)        6        6     2050    117.5    496.0   1244.1   541.00      0.0    114.8      2.7      0.0      0.0     85.6       34    199.1    156.9       85     0.000     0.000     0.000     0.000      107        0       42       25       12       20       11    12.144       56     40.4    4.910   -9.900     1.72    0.000    0.000       26        9     2050  Maize_short_Chisinau_6June_NonOptimum_85_NCC.PRM
  Tot(71)        6        6     2051    222.0    439.3   1167.6   546.00      0.0    212.1      9.9     17.7      0.0    120.4       63    228.7    175.0      100     0.000     0.000     0.000     0.000      107        0       42       25       14        1        0    16.376       75     40.0    6.554   -9.900     1.88    0.000    0.000       26        9     2051  Maize_short_Chisinau_6June_NonOptimum_85_NCC.PRM
  Tot(72)        6        6     2052     63.2    628.4   1555.5   552.00      0.0     62.5      0.7      0.0      0.0     78.8       21    190.0    153.5       78     0.000     0.000     0.000     0.000       96        0       42       25        2       27       19     9.101       37     33.1    3.013   -9.900     1.13    0.000    0.000       26        9     2052  Maize_short_Chisinau_6June_NonOptimum_85_NCC.PRM
  Tot(73)        6        6     2053    134.1    523.0   1358.2   558.00      0.0    132.4      1.7      6.8      0.0    107.3       42    206.7    163.4       81     0.000     0.000     0.000     0.000      107        0       42       25        8       24       17    11.330       48     40.3    4.561   -9.900     1.45    0.000    0.000       26        9     2053  Maize_short_Chisinau_6June_NonOptimum_85_NCC.PRM
  Tot(74)        6        6     2054     85.1    573.4   1411.9   564.00      0.0     84.8      0.3      0.0      0.0    101.1       34    200.7    159.4       76     0.000     0.000     0.000     0.000      107        0       42       25        5       26       23    10.485       44     39.9    4.180   -9.900     1.39    0.000    0.000       26        9     2054  Maize_short_Chisinau_6June_NonOptimum_85_NCC.PRM
  Tot(75)        6        6     2055    143.3    540.4   1251.6   571.00      0.0    138.1      5.2      4.9      0.0    141.5       51    201.2    158.5       83     0.000     0.000     0.000     0.000      105        0       42       25       12       19       17    11.273       52     40.4    4.554   -9.900     1.33    0.000    0.000       26        9     2055  Maize_short_Chisinau_6June_NonOptimum_85_NCC.PRM
  Tot(76)        6        6     2056     76.9    661.3   1589.0   577.00      0.0     75.6      1.3      0.3      0.0    101.7       22    163.3    132.8       78     0.000     0.000     0.000     0.000       93        0       42       25        2       35       18     7.048       30     25.8    1.817   -9.900     0.70    0.000    0.000       26        9     2056  Maize_short_Chisinau_6June_NonOptimum_85_NCC.PRM
  Tot(77)        6        6     2057    107.3    561.8   1420.6   583.00      0.0    106.5      0.8      0.0      0.0    110.0       38    211.0    166.0       81     0.000     0.000     0.000     0.000      101        0       42       25        7       18       18    11.037       47     38.1    4.208   -9.900     1.32    0.000    0.000       26        9     2057  Maize_short_Chisinau_6June_NonOptimum_85_NCC.PRM
  Tot(78)        6        6     2058     32.0    623.9   1431.2   590.00      0.0     30.9      1.1      0.5      0.0     62.2       16    165.8    133.5       76     0.000     0.000     0.000     0.000       89        0       42       25        4       33       19     7.447       31     26.1    1.941   -9.900     0.85    0.000    0.000       26        9     2058  Maize_short_Chisinau_6June_NonOptimum_85_NCC.PRM
  Tot(79)        6        6     2059     61.5    640.1   1511.6   597.00      0.0     61.5      0.0      0.0      0.0     88.0       21    167.5    134.9       77     0.000     0.000     0.000     0.000       94        0       42       25        3       33       18     7.498       32     29.2    2.191   -9.900     0.89    0.000    0.000       26        9     2059  Maize_short_Chisinau_6June_NonOptimum_85_NCC.PRM
  Tot(80)        6        6     2060    210.2    442.6   1124.6   604.00      0.0    197.5     12.7     11.8      0.0     96.0       51    233.6    180.4      100     0.000     0.000     0.000     0.000      107        0       42       25       15        2        0    16.336       75     40.1    6.551   -9.900     1.99    0.000    0.000       26        9     2060  Maize_short_Chisinau_6June_NonOptimum_85_NCC.PRM
  Tot(81)        6        6     2061     91.0    562.3   1362.6   611.00      0.0     88.2      2.8     13.3      0.0     86.2       29    191.6    152.5       77     0.000     0.000     0.000     0.000      103        0       42       25        7       23       19    10.020       42     40.2    4.026   -9.900     1.45    0.000    0.000       26        9     2061  Maize_short_Chisinau_6June_NonOptimum_85_NCC.PRM
  Tot(82)        6        6     2062     67.3    625.0   1466.4   618.00      0.0     67.2      0.1      0.0      0.0     91.0       24    171.4    137.4       75     0.000     0.000     0.000     0.000       93        0       42       25        4       30       18     8.302       36     30.1    2.499   -9.900     0.96    0.000    0.000       26        9     2062  Maize_short_Chisinau_6June_NonOptimum_85_NCC.PRM
  Tot(83)        6        6     2063     41.5    651.5   1502.0   625.00      0.0     39.3      2.2      8.7      0.0     62.2       15    170.7    137.3       76     0.000     0.000     0.000     0.000       92        0       42       25        2       31       19     7.969       33     29.1    2.315   -9.900     1.00    0.000    0.000       26        9     2063  Maize_short_Chisinau_6June_NonOptimum_85_NCC.PRM
  Tot(84)        6        6     2064     57.4    610.6   1521.4   632.00      0.0     55.0      2.4      0.0      0.0     74.6       21    180.3    143.8       77     0.000     0.000     0.000     0.000       94        0       42       25        5       28       18     8.740       35     31.4    2.742   -9.900     1.08    0.000    0.000       26        9     2064  Maize_short_Chisinau_6June_NonOptimum_85_NCC.PRM
  Tot(85)        6        6     2065    170.0    623.8   1527.9   639.00      0.0    143.2     26.8     32.8      0.0    130.5       38    187.7    148.9       76     0.000     0.000     0.000     0.000       93        0       42       25        2       24       20     9.263       37     29.9    2.772   -9.900     0.87    0.000    0.000       26        9     2065  Maize_short_Chisinau_6June_NonOptimum_85_NCC.PRM
  Tot(86)        6        6     2066     36.1    662.3   1589.3   647.00      0.0     36.1      0.0      0.0      0.0     58.1       14    188.3    152.1       79     0.000     0.000     0.000     0.000      107        0       42       25        4       34       18     9.676       40     40.4    3.909   -9.900     1.59    0.000    0.000       26        9     2066  Maize_short_Chisinau_6June_NonOptimum_85_NCC.PRM
  Tot(87)        6        6     2067     92.6    659.2   1596.3   654.00      0.0     91.8      0.8      0.0      0.0     91.9       21    171.4    138.4       78     0.000     0.000     0.000     0.000       95        0       42       25        2       32       18     8.029       34     32.2    2.587   -9.900     1.02    0.000    0.000       26        9     2067  Maize_short_Chisinau_6June_NonOptimum_85_NCC.PRM
  Tot(88)        6        6     2068     57.0    610.6   1478.7   662.00      0.0     56.8      0.2      0.0      0.0     87.7       24    172.7    138.5       78     0.000     0.000     0.000     0.000       95        0       42       25        3       29       18     8.716       36     32.2    2.805   -9.900     1.10    0.000    0.000       26        9     2068  Maize_short_Chisinau_6June_NonOptimum_85_NCC.PRM
  Tot(89)        6        6     2069     89.9    518.5   1346.6   669.00      0.0     89.5      0.4      1.0      0.0     94.3       36    198.1    156.0       83     0.000     0.000     0.000     0.000      107        0       42       25        7       17       17    11.994       50     40.1    4.810   -9.900     1.64    0.000    0.000       26        9     2069  Maize_short_Chisinau_6June_NonOptimum_85_NCC.PRM
  Tot(90)        6        6     2070     74.3    600.6   1486.4   677.00      0.0     73.9      0.4      0.0      0.0     77.3       23    189.2    151.0       79     0.000     0.000     0.000     0.000      107        0       42       25        7       27       15     9.561       41     40.4    3.866   -9.900     1.45    0.000    0.000       26        9     2070  Maize_short_Chisinau_6June_NonOptimum_85_NCC.PRM
  Tot(91)        6        6     2071    128.0    577.7   1501.4   685.00      0.0    123.3      4.7      3.4      0.0     86.4       28    240.6    189.8       89     0.000     0.000     0.000     0.000      107        0       42       25        5       21       10    13.860       58     40.2    5.566   -9.900     1.70    0.000    0.000       26        9     2071  Maize_short_Chisinau_6June_NonOptimum_85_NCC.PRM
  Tot(92)        6        6     2072    190.3    513.8   1414.1   693.00      0.0    175.2     15.1     26.3      0.0    106.1       45    247.1    192.8       94     0.000     0.000     0.000     0.000      107        0       42       25        7        9        6    15.986       68     40.3    6.440   -9.900     1.82    0.000    0.000       26        9     2072  Maize_short_Chisinau_6June_NonOptimum_85_NCC.PRM
  Tot(93)        6        6     2073    108.8    592.9   1524.3   701.00      0.0     99.3      9.5      8.8      0.0    106.9       30    176.1    142.0       79     0.000     0.000     0.000     0.000      107        0       42       25        4       31       17     8.903       36     40.5    3.607   -9.900     1.27    0.000    0.000       26        9     2073  Maize_short_Chisinau_6June_NonOptimum_85_NCC.PRM
  Tot(94)        6        6     2074     92.5    683.2   1677.3   709.00      0.0     92.4      0.1      0.0      0.0    119.5       26    176.8    143.4       83     0.000     0.000     0.000     0.000       98        0       42       25        1       33       17     8.565       36     35.4    3.029   -9.900     1.03    0.000    0.000       26        9     2074  Maize_short_Chisinau_6June_NonOptimum_85_NCC.PRM
  Tot(95)        6        6     2075     67.2    621.9   1532.4   717.00      0.0     67.2      0.0      0.0      0.0     84.1       22    185.7    148.6       81     0.000     0.000     0.000     0.000      106        0       42       25        3       27       17    10.260       42     40.4    4.148   -9.900     1.54    0.000    0.000       26        9     2075  Maize_short_Chisinau_6June_NonOptimum_85_NCC.PRM
  Tot(96)        6        6     2076    163.6    549.0   1481.0   725.00      0.0    147.1     16.5     33.1      0.0    127.9       45    193.2    152.4       80     0.000     0.000     0.000     0.000      101        0       42       25        4       21       18    10.781       45     38.3    4.128   -9.900     1.29    0.000    0.000       26        9     2076  Maize_short_Chisinau_6June_NonOptimum_85_NCC.PRM
  Tot(97)        6        6     2077    103.7    623.7   1577.8   733.00      0.0    100.0      3.7      0.0      0.0     93.7       24    172.4    139.1       79     0.000     0.000     0.000     0.000      107        0       42       25        3       33       13     8.428       35     40.5    3.417   -9.900     1.28    0.000    0.000       26        9     2077  Maize_short_Chisinau_6June_NonOptimum_85_NCC.PRM
  Tot(98)        6        6     2078     28.1    662.5   1607.7   742.00      0.0     28.1      0.0      0.0      0.0     60.3       14    164.2    133.2       78     0.000     0.000     0.000     0.000       98        0       42       25        4       33       17     7.785       33     35.4    2.754   -9.900     1.25    0.000    0.000       26        9     2078  Maize_short_Chisinau_6June_NonOptimum_85_NCC.PRM
  Tot(99)        6        6     2079     92.7    562.1   1502.5   750.00      0.0     92.4      0.3      0.0      0.0     87.4       31    222.7    175.6       85     0.000     0.000     0.000     0.000      107        0       42       25        6       16       15    13.134       55     39.9    5.242   -9.900     1.69    0.000    0.000       26        9     2079  Maize_short_Chisinau_6June_NonOptimum_85_NCC.PRM
 Tot(100)        6        6     2080     73.0    563.6   1455.9   758.00      0.0     72.8      0.2      1.3      0.0     94.4       30    189.4    150.6       83     0.000     0.000     0.000     0.000      104        0       42       25        2       25       17    11.137       46     40.3    4.485   -9.900     1.58    0.000    0.000       26        9     2080  Maize_short_Chisinau_6June_NonOptimum_85_NCC.PRM
 Tot(101)        6        6     2081     76.6    606.2   1473.3   767.00      0.0     74.9      1.7      0.0      0.0     72.2       19    182.4    147.4       83     0.000     0.000     0.000     0.000      107        0       42       25        9       34       11     9.616       42     40.7    3.913   -9.900     1.54    0.000    0.000       26        9     2081  Maize_short_Chisinau_6June_NonOptimum_85_NCC.PRM
 Tot(102)        6        6     2082    176.8    492.6   1425.1   775.00      0.0    167.0      9.8     17.4      0.0    111.2       49    238.8    186.9       97     0.000     0.000     0.000     0.000      107        0       42       25        6        8        4    16.294       70     40.1    6.527   -9.900     1.87    0.000    0.000       26        9     2082  Maize_short_Chisinau_6June_NonOptimum_85_NCC.PRM
 Tot(103)        6        6     2083    107.1    601.7   1551.2   784.00      0.0    106.6      0.5      0.0      0.0    120.6       36    192.8    153.8       81     0.000     0.000     0.000     0.000       98        0       42       25        2       28       18     9.726       42     35.3    3.434   -9.900     1.10    0.000    0.000       26        9     2083  Maize_short_Chisinau_6June_NonOptimum_85_NCC.PRM
 Tot(104)        6        6     2084     67.3    533.7   1476.0   792.00      0.0     66.4      0.9      0.7      0.0     56.7       23    222.6    173.1       84     0.000     0.000     0.000     0.000      107        0       42       25        3        7       14    13.715       57     39.9    5.466   -9.900     1.96    0.000    0.000       26        9     2084  Maize_short_Chisinau_6June_NonOptimum_85_NCC.PRM
 Tot(105)        6        6     2085     53.2    704.9   1732.0   801.00      0.0     52.8      0.4      0.0      0.0     64.3       14    192.6    155.5       83     0.000     0.000     0.000     0.000      107        0       42       25        2       34       12    10.430       43     32.9    3.429   -9.900     1.33    0.000    0.000       26        9     2085  Maize_short_Chisinau_6June_NonOptimum_85_NCC.PRM
 Tot(106)        6        6     2086    107.8    553.4   1410.4   810.00      0.0    107.5      0.3      0.0      0.0     90.0       32    210.8    165.2       86     0.000     0.000     0.000     0.000      107        0       42       25       11       12       11    12.242       57     40.2    4.925   -9.900     1.64    0.000    0.000       26        9     2086  Maize_short_Chisinau_6June_NonOptimum_85_NCC.PRM
 Tot(107)        6        6     2087    119.8    565.7   1461.1   818.00      0.0    114.8      5.0     18.6      0.0    107.8       40    202.3    159.3       79     0.000     0.000     0.000     0.000      100        0       42       25        6       16       19    10.835       46     36.9    4.002   -9.900     1.30    0.000    0.000       26        9     2087  Maize_short_Chisinau_6June_NonOptimum_85_NCC.PRM
 Tot(108)        6        6     2088     59.4    653.2   1639.4   827.00      0.0     59.4      0.0      0.0      0.0     76.2       19    192.8    154.9       82     0.000     0.000     0.000     0.000      102        0       42       25        3       27       17     9.562       42     39.2    3.753   -9.900     1.41    0.000    0.000       26        9     2088  Maize_short_Chisinau_6June_NonOptimum_85_NCC.PRM
 Tot(109)        6        6     2089     54.0    708.9   1666.0   836.00      0.0     53.5      0.5      0.0      0.0     85.9       18    171.2    138.1       78     0.000     0.000     0.000     0.000       95        0       42       25        1       32       18     8.109       33     32.2    2.612   -9.900     1.02    0.000    0.000       26        9     2089  Maize_short_Chisinau_6June_NonOptimum_85_NCC.PRM
 Tot(110)        6        6     2090     61.4    634.5   1593.0   845.00      0.0     61.3      0.1      0.0      0.0     92.9       23    171.2    137.4       80     0.000     0.000     0.000     0.000       98        0       42       25        2       30       17     8.691       37     35.3    3.072   -9.900     1.18    0.000    0.000       26        9     2090  Maize_short_Chisinau_6June_NonOptimum_85_NCC.PRM
 Tot(111)        6        6     2091    108.4    598.6   1648.5   854.00      0.0    105.4      3.0      0.0      0.0    103.1       35    215.6    169.4       81     0.000     0.000     0.000     0.000      103        0       42       25        1       16       18    11.202       46     40.1    4.488   -9.900     1.41    0.000    0.000       26        9     2091  Maize_short_Chisinau_6June_NonOptimum_85_NCC.PRM
 Tot(112)        6        6     2092    118.0    633.2   1604.6   863.00      0.0    111.1      6.9      6.7      0.0     96.8       25    169.3    136.1       78     0.000     0.000     0.000     0.000       93        0       42       25        1       32       18     7.652       33     30.2    2.312   -9.900     0.90    0.000    0.000       26        9     2092  Maize_short_Chisinau_6June_NonOptimum_85_NCC.PRM
 Tot(113)        6        6     2093    110.2    655.7   1717.8   872.00      0.0    108.9      1.3      2.6      0.0    125.7       33    177.8    142.2       75     0.000     0.000     0.000     0.000       93        0       42       25        0       29       19     8.051       34     30.1    2.420   -9.900     0.80    0.000    0.000       26        9     2093  Maize_short_Chisinau_6June_NonOptimum_85_NCC.PRM
 Tot(114)        6        6     2094     66.9    648.6   1662.2   881.00      0.0     66.9      0.0      0.0      0.0     89.5       23    183.3    146.3       78     0.000     0.000     0.000     0.000       99        0       42       25        1       26       18     9.359       40     36.2    3.392   -9.900     1.25    0.000    0.000       26        9     2094  Maize_short_Chisinau_6June_NonOptimum_85_NCC.PRM
 Tot(115)        6        6     2095    169.2    572.0   1533.2   890.00      0.0    151.8     17.4     43.3      0.0    121.4       42    191.7    151.5       80     0.000     0.000     0.000     0.000      101        0       42       25        5       21       17    10.206       46     38.4    3.918   -9.900     1.25    0.000    0.000       26        9     2095  Maize_short_Chisinau_6June_NonOptimum_85_NCC.PRM
 Tot(116)        6        6     2096    130.3    668.7   1695.2   899.00      0.0    129.5      0.8      0.0      0.0    143.4       35    171.4    137.5       76     0.000     0.000     0.000     0.000      107        0       42       25        4       30       16     7.590       33     29.3    2.222   -9.900     0.71    0.000    0.000       26        9     2096  Maize_short_Chisinau_6June_NonOptimum_85_NCC.PRM
 Tot(117)        6        6     2097    102.2    663.1   1603.4   908.00      0.0     91.2     11.0     15.8      0.0    105.5       25    176.0    141.3       80     0.000     0.000     0.000     0.000       99        0       42       25        3       28       17     8.956       40     36.2    3.243   -9.900     1.16    0.000    0.000       26        9     2097  Maize_short_Chisinau_6June_NonOptimum_85_NCC.PRM
 Tot(118)        6        6     2098     66.1    626.9   1701.7   917.00      0.0     63.8      2.3      7.0      0.0     77.4       21    177.0    141.7       79     0.000     0.000     0.000     0.000       96        0       42       25        2       29       18     8.659       36     33.3    2.880   -9.900     1.15    0.000    0.000       26        9     2098  Maize_short_Chisinau_6June_NonOptimum_85_NCC.PRM
 Tot(119)        6        6     2099    140.6    574.5   1566.6   927.00      0.0    123.4     17.2     33.1      0.0     97.0       35    206.5    161.6       81     0.000     0.000     0.000     0.000      103        0       42       25        1       15       18    11.255       48     40.1    4.508   -9.900     1.49    0.000    0.000       26        9     2099  Maize_short_Chisinau_6June_NonOptimum_85_NCC.PRM
