AquaCrop 7.0 (August 2022) - Output created on (date) : 23-11-2022   at (time) : 13:08:31

    RunNr     Day1   Month1    Year1     Rain      ETo       GD     CO2      Irri   Infilt   Runoff    Drain   Upflow        E     E/Ex       Tr      TrW   Tr/Trx    SaltIn   SaltOut    SaltUp  SaltProf     Cycle   SaltStr  FertStr  WeedStr  TempStr   ExpStr   StoStr  BioMass  Brelative   HI    Y(dry)  Y(fresh)    WPet      Bin     Bout     DayN   MonthN    YearN
                                           mm       mm  degC.day    ppm        mm       mm       mm       mm       mm       mm        %       mm       mm        %    ton/ha    ton/ha    ton/ha    ton/ha      days       %        %        %        %        %        %    ton/ha        %       %    ton/ha   ton/ha    kg/m3   ton/ha   ton/ha
   Tot(1)        6        6     1981    179.0    479.2   1259.0   340.11      0.0    174.7      4.3      0.0      0.0    132.9       57    220.5    219.3       90     0.000     0.000     0.000     0.000      107        0        0        0       13       17        7    16.102       81     40.7    6.560   -9.900     1.86    0.000    0.000       26        9     1981  Maize_short_Cahul_6June_Optimum_85_MOHC.PRM
   Tot(2)        6        6     1982    226.5    453.3   1300.2   341.22      0.0    224.6      1.9      0.0      0.0    156.5       76    260.5    260.9       99     0.000     0.000     0.000     0.000      107        0        0        0        6        2        1    21.545       96     40.1    8.646   -9.900     2.07    0.000    0.000       26        9     1982  Maize_short_Cahul_6June_Optimum_85_MOHC.PRM
   Tot(3)        6        6     1983    282.8    466.4   1248.7   342.84      0.0    248.9     33.9     46.7      0.0    132.2       64    257.0    257.3       99     0.000     0.000     0.000     0.000      107        0        0        0        9        4        1    20.228       95     40.0    8.092   -9.900     2.08    0.000    0.000       26        9     1983  Maize_short_Cahul_6June_Optimum_85_MOHC.PRM
   Tot(4)        6        6     1984    143.5    453.8   1166.3   344.40      0.0    140.3      3.2      4.9      0.0    123.3       58    220.8    220.0       91     0.000     0.000     0.000     0.000      107        0        0        0       11        9        9    17.880       83     40.2    7.193   -9.900     2.09    0.000    0.000       26        9     1984  Maize_short_Cahul_6June_Optimum_85_MOHC.PRM
   Tot(5)        6        6     1985    324.4    461.9   1179.1   345.87      0.0    287.6     36.8     49.1      0.0    135.8       70    258.6    259.2       99     0.000     0.000     0.000     0.000      107        0        0        0       16        4        0    19.185       96     40.2    7.717   -9.900     1.96    0.000    0.000       26        9     1985  Maize_short_Cahul_6June_Optimum_85_MOHC.PRM
   Tot(6)        6        6     1986    149.3    523.6   1330.5   347.19      0.0    143.2      6.1      7.2      0.0    118.6       48    231.7    232.3       83     0.000     0.000     0.000     0.000      107        0        0        0        8       15       14    15.738       73     40.4    6.352   -9.900     1.81    0.000    0.000       26        9     1986  Maize_short_Cahul_6June_Optimum_85_MOHC.PRM
   Tot(7)        6        6     1987    210.0    499.3   1282.2   348.98      0.0    199.7     10.3      5.6      0.0    126.8       54    262.1    260.7       98     0.000     0.000     0.000     0.000      107        0        0        0        9        6        2    19.599       94     40.3    7.891   -9.900     2.03    0.000    0.000       26        9     1987  Maize_short_Cahul_6June_Optimum_85_MOHC.PRM
   Tot(8)        6        6     1988    164.3    492.5   1317.1   351.45      0.0    154.4      9.9      0.0      0.0    107.7       41    206.4    207.0       87     0.000     0.000     0.000     0.000      107        0        0        0        9       24        8    14.613       69     40.7    5.955   -9.900     1.90    0.000    0.000       26        9     1988  Maize_short_Cahul_6June_Optimum_85_MOHC.PRM
   Tot(9)        6        6     1989    263.2    446.7   1239.6   352.89      0.0    252.6     10.6      6.9      0.0    133.6       65    242.4    241.5      100     0.000     0.000     0.000     0.000      107        0        0        0       11        3        0    19.953       97     40.1    8.005   -9.900     2.13    0.000    0.000       26        9     1989  Maize_short_Cahul_6June_Optimum_85_MOHC.PRM
  Tot(10)        6        6     1990    126.8    508.1   1226.1   354.16      0.0    126.2      0.6      0.0      0.0    119.2       45    208.6    210.1       87     0.000     0.000     0.000     0.000      107        0        0        0       13       18       13    14.494       73     40.4    5.863   -9.900     1.79    0.000    0.000       26        9     1990  Maize_short_Cahul_6June_Optimum_85_MOHC.PRM
  Tot(11)        6        6     1991    222.0    443.1   1313.0   355.48      0.0    209.4     12.6     21.9      0.0    124.4       61    240.4    239.0      100     0.000     0.000     0.000     0.000      107        0        0        0        8        3        0    20.349       97     40.2    8.172   -9.900     2.24    0.000    0.000       26        9     1991  Maize_short_Cahul_6June_Optimum_85_MOHC.PRM
  Tot(12)        6        6     1992    139.3    517.8   1313.1   356.27      0.0    135.9      3.4      6.6      0.0    123.4       48    211.3    213.1       82     0.000     0.000     0.000     0.000      107        0        0        0       10       22       15    13.783       66     40.5    5.588   -9.900     1.67    0.000    0.000       26        9     1992  Maize_short_Cahul_6June_Optimum_85_MOHC.PRM
  Tot(13)        6        6     1993    141.0    501.0   1168.2   356.95      0.0    140.8      0.2      0.0      0.0    104.1       42    227.4    226.3       93     0.000     0.000     0.000     0.000      107        0        0        0       16       16        5    16.569       84     40.7    6.735   -9.900     2.03    0.000    0.000       26        9     1993  Maize_short_Cahul_6June_Optimum_85_MOHC.PRM
  Tot(14)        6        6     1994    201.5    505.3   1432.3   358.63      0.0    160.3     41.2     32.0      0.0     90.1       36    252.3    252.7       90     0.000     0.000     0.000     0.000      107        0        0        0        3       18        8    18.486       80     40.7    7.518   -9.900     2.20    0.000    0.000       26        9     1994  Maize_short_Cahul_6June_Optimum_85_MOHC.PRM
  Tot(15)        6        6     1995    191.4    495.2   1340.3   360.62      0.0    188.1      3.3      0.0      0.0    121.7       48    237.3    237.7       95     0.000     0.000     0.000     0.000      107        0        0        0        9       16        3    18.156       87     40.7    7.387   -9.900     2.06    0.000    0.000       26        9     1995  Maize_short_Cahul_6June_Optimum_85_MOHC.PRM
  Tot(16)        6        6     1996    216.5    496.5   1218.6   362.37      0.0    188.4     28.1      0.0      0.0     84.8       28    192.8    192.6       97     0.000     0.000     0.000     0.000      107        0        0        0       17       27        1    14.902       79     40.9    6.096   -9.900     2.20    0.000    0.000       26        9     1996  Maize_short_Cahul_6June_Optimum_85_MOHC.PRM
  Tot(17)        6        6     1997    374.7    437.8   1219.0   363.47      0.0    331.6     43.1     21.0      0.0    154.2       73    216.0    216.5      100     0.000     0.000     0.000     0.000      107        0        0        0       13        1        0    19.216       97     40.0    7.687   -9.900     2.08    0.000    0.000       26        9     1997  Maize_short_Cahul_6June_Optimum_85_MOHC.PRM
  Tot(18)        6        6     1998    210.6    490.9   1290.8   366.50      0.0    202.8      7.8      2.7      0.0    137.5       57    216.7    215.7       88     0.000     0.000     0.000     0.000      107        0        0        0       11       22        7    15.320       74     40.7    6.242   -9.900     1.76    0.000    0.000       26        9     1998  Maize_short_Cahul_6June_Optimum_85_MOHC.PRM
  Tot(19)        6        6     1999    276.9    515.7   1442.8   368.14      0.0    264.5     12.4     18.9      0.0    146.3       54    262.2    260.6      100     0.000     0.000     0.000     0.000      107        0        0        0        5       12        0    20.568       92     40.4    8.314   -9.900     2.04    0.000    0.000       26        9     1999  Maize_short_Cahul_6June_Optimum_85_MOHC.PRM
  Tot(20)        6        6     2000    158.9    542.0   1294.7   369.41      0.0    148.1     10.8      0.0      0.0     98.1       31    203.4    206.0       85     0.000     0.000     0.000     0.000      107        0        0        0       12       25        8    13.776       66     40.7    5.610   -9.900     1.86    0.000    0.000       26        9     2000  Maize_short_Cahul_6June_Optimum_85_MOHC.PRM
  Tot(21)        6        6     2001    221.7    527.9   1398.2   371.07      0.0    201.1     20.6      0.3      0.0    135.1       46    194.9    195.0       82     0.000     0.000     0.000     0.000      107        0        0        0        6       27       12    12.690       57     40.6    5.151   -9.900     1.56    0.000    0.000       26        9     2001  Maize_short_Cahul_6June_Optimum_85_MOHC.PRM
  Tot(22)        6        6     2002    281.0    528.2   1422.2   373.16      0.0    245.2     35.8     12.8      0.0    108.3       38    260.4    259.6      100     0.000     0.000     0.000     0.000      107        0        0        0        6        5        0    20.424       92     40.0    8.170   -9.900     2.22    0.000    0.000       26        9     2002  Maize_short_Cahul_6June_Optimum_85_MOHC.PRM
  Tot(23)        6        6     2003    140.3    548.0   1349.4   375.80      0.0    134.9      5.4      0.0      0.0    100.9       34    221.2    221.7       86     0.000     0.000     0.000     0.000      107        0        0        0        9       17       10    15.517       73     40.4    6.273   -9.900     1.95    0.000    0.000       26        9     2003  Maize_short_Cahul_6June_Optimum_85_MOHC.PRM
  Tot(24)        6        6     2004    228.7    508.4   1288.8   377.49      0.0    221.5      7.2      3.7      0.0    113.5       45    258.8    258.0      100     0.000     0.000     0.000     0.000      107        0        0        0        9        6        0    20.096       94     40.2    8.071   -9.900     2.17    0.000    0.000       26        9     2004  Maize_short_Cahul_6June_Optimum_85_MOHC.PRM
  Tot(25)        6        6     2005    352.7    506.6   1346.7   379.80      0.0    327.3     25.4     34.4      0.0    134.4       59    291.2    289.5      100     0.000     0.000     0.000     0.000      107        0        0        0        5        2        0    21.779       96     40.0    8.720   -9.900     2.05    0.000    0.000       26        9     2005  Maize_short_Cahul_6June_Optimum_85_MOHC.PRM
  Tot(26)        6        6     2006    156.6    550.8   1344.7   381.90      0.0    154.3      2.3      0.0      0.0    113.1       36    238.3    239.7       93     0.000     0.000     0.000     0.000      107        0        0        0        6       24        5    16.857       75     40.6    6.849   -9.900     1.95    0.000    0.000       26        9     2006  Maize_short_Cahul_6June_Optimum_85_MOHC.PRM
  Tot(27)        6        6     2007    159.1    626.4   1410.5   383.77      0.0    157.4      1.7      0.0      0.0    124.0       31    229.3    229.4       92     0.000     0.000     0.000     0.000      107        0        0        0        8       25        6    14.814       69     40.2    5.960   -9.900     1.69    0.000    0.000       26        9     2007  Maize_short_Cahul_6June_Optimum_85_MOHC.PRM
  Tot(28)        6        6     2008    197.7    569.5   1367.7   385.59      0.0    188.2      9.5      0.0      0.0    129.2       43    217.9    218.9       80     0.000     0.000     0.000     0.000      107        0        0        0       12       19       12    13.692       67     40.3    5.520   -9.900     1.59    0.000    0.000       26        9     2008  Maize_short_Cahul_6June_Optimum_85_MOHC.PRM
  Tot(29)        6        6     2009    176.3    588.9   1438.2   387.37      0.0    169.3      7.0      0.0      0.0    132.6       41    237.0    236.4       86     0.000     0.000     0.000     0.000      107        0        0        0        4       23       12    15.251       66     40.6    6.188   -9.900     1.67    0.000    0.000       26        9     2009  Maize_short_Cahul_6June_Optimum_85_MOHC.PRM
  Tot(30)        6        6     2010    247.1    521.6   1434.9   389.85      0.0    228.6     18.5     34.5      0.0    144.4       58    242.2    241.9       87     0.000     0.000     0.000     0.000      107        0        0        0        7       15        9    17.023       76     40.6    6.909   -9.900     1.79    0.000    0.000       26        9     2010  Maize_short_Cahul_6June_Optimum_85_MOHC.PRM
  Tot(31)        6        6     2011    144.1    558.1   1426.3   391.63      0.0    132.7     11.4     12.7      0.0    119.0       40    215.7    216.9       81     0.000     0.000     0.000     0.000      104        0        0        0        3       20       18    13.821       58     40.0    5.525   -9.900     1.65    0.000    0.000       26        9     2011  Maize_short_Cahul_6June_Optimum_85_MOHC.PRM
  Tot(32)        6        6     2012    172.7    628.8   1504.7   393.82      0.0    166.6      6.1      6.3      0.0    136.7       36    225.7    224.3       82     0.000     0.000     0.000     0.000      107        0        0        0        3       30       14    13.332       57     40.3    5.372   -9.900     1.48    0.000    0.000       26        9     2012  Maize_short_Cahul_6June_Optimum_85_MOHC.PRM
  Tot(33)        6        6     2013    278.4    535.9   1388.7   396.48      0.0    252.5     25.9     25.8      0.0    138.7       51    237.0    237.2       89     0.000     0.000     0.000     0.000      107        0        0        0        8       19        6    16.949       78     40.7    6.904   -9.900     1.84    0.000    0.000       26        9     2013  Maize_short_Cahul_6June_Optimum_85_MOHC.PRM
  Tot(34)        6        6     2014    153.0    567.9   1422.4   398.55      0.0    152.8      0.2      0.0      0.0    140.1       49    227.5    228.7       79     0.000     0.000     0.000     0.000      107        0        0        0        6       23       20    14.324       63     39.8    5.704   -9.900     1.55    0.000    0.000       26        9     2014  Maize_short_Cahul_6June_Optimum_85_MOHC.PRM
  Tot(35)        6        6     2015    140.8    604.0   1480.5   402.00      0.0    138.4      2.4      0.1      0.0    131.6       39    216.5    216.3       78     0.000     0.000     0.000     0.000      107        0        0        0        3       29       19    13.056       55     40.3    5.263   -9.900     1.51    0.000    0.000       26        9     2015  Maize_short_Cahul_6June_Optimum_85_MOHC.PRM
  Tot(36)        6        6     2016    168.2    577.0   1458.2   404.00      0.0    155.6     12.6      0.1      0.0    129.7       38    195.0    195.2       81     0.000     0.000     0.000     0.000      107        0        0        0        7       28       16    12.006       54     40.3    4.839   -9.900     1.49    0.000    0.000       26        9     2016  Maize_short_Cahul_6June_Optimum_85_MOHC.PRM
  Tot(37)        6        6     2017    233.5    561.6   1453.7   407.00      0.0    202.3     31.2      8.2      0.0    137.4       53    277.3    276.9       88     0.000     0.000     0.000     0.000      107        0        0        0        4        6       13    18.357       79     39.7    7.285   -9.900     1.76    0.000    0.000       26        9     2017  Maize_short_Cahul_6June_Optimum_85_MOHC.PRM
  Tot(38)        6        6     2018    165.7    536.5   1498.9   410.00      0.0    161.3      4.4      0.0      0.0    114.1       46    258.3    258.7       87     0.000     0.000     0.000     0.000      107        0        0        0        4        5       13    18.011       77     39.8    7.165   -9.900     1.92    0.000    0.000       26        9     2018  Maize_short_Cahul_6June_Optimum_85_MOHC.PRM
  Tot(39)        6        6     2019    147.0    605.5   1482.4   413.00      0.0    144.2      2.8      0.6      0.0    137.9       39    196.3    196.3       78     0.000     0.000     0.000     0.000       98        0        0        0        1       22       19    12.155       53     34.8    4.233   -9.900     1.28    0.000    0.000       26        9     2019  Maize_short_Cahul_6June_Optimum_85_MOHC.PRM
  Tot(40)        6        6     2020     97.7    687.8   1608.4   416.00      0.0     90.3      7.4      0.0      0.0     95.5       19    157.6    157.6       78     0.000     0.000     0.000     0.000       91        0        0        0        1       37       18     7.882       33     27.2    2.143   -9.900     0.93    0.000    0.000       26        9     2020  Maize_short_Cahul_6June_Optimum_85_MOHC.PRM
  Tot(41)        6        6     2021     27.4    700.9   1635.5   419.00      0.0     27.4      0.0      0.0      0.0     68.5       13    160.7    160.7       78     0.000     0.000     0.000     0.000       93        0        0        0        1       36       18     8.519       35     30.2    2.573   -9.900     1.13    0.000    0.000       26        9     2021  Maize_short_Cahul_6June_Optimum_85_MOHC.PRM
  Tot(42)        6        6     2022     45.9    663.2   1603.7   422.00      0.0     45.9      0.0      0.0      0.0     75.7       16    161.2    161.2       77     0.000     0.000     0.000     0.000       91        0        0        0        1       35       18     8.411       35     28.2    2.371   -9.900     1.06    0.000    0.000       26        9     2022  Maize_short_Cahul_6June_Optimum_85_MOHC.PRM
  Tot(43)        6        6     2023    112.1    618.2   1514.4   425.00      0.0    112.1      0.0      0.0      0.0    117.1       29    188.4    187.6       80     0.000     0.000     0.000     0.000      107        0        0        0        4       36       13    10.927       47     40.7    4.442   -9.900     1.45    0.000    0.000       26        9     2023  Maize_short_Cahul_6June_Optimum_85_MOHC.PRM
  Tot(44)        6        6     2024     36.4    684.4   1668.1   428.00      0.0     36.4      0.0      0.0      0.0     76.9       16    156.1    156.9       76     0.000     0.000     0.000     0.000       89        0        0        0        0       36       18     7.891       32     26.1    2.062   -9.900     0.89    0.000    0.000       26        9     2024  Maize_short_Cahul_6June_Optimum_85_MOHC.PRM
  Tot(45)        6        6     2025     93.7    624.0   1478.6   431.00      0.0     92.7      1.0      0.0      0.0    114.3       28    175.8    175.8       80     0.000     0.000     0.000     0.000       98        0        0        0        3       34       17     9.736       42     35.5    3.453   -9.900     1.20    0.000    0.000       26        9     2025  Maize_short_Cahul_6June_Optimum_85_MOHC.PRM
  Tot(46)        6        6     2026     83.0    600.2   1525.2   435.00      0.0     80.2      2.8      0.0      0.0     86.4       22    167.9    167.5       78     0.000     0.000     0.000     0.000      107        0        0        0        6       35       12     9.823       43     40.6    3.990   -9.900     1.57    0.000    0.000       26        9     2026  Maize_short_Cahul_6June_Optimum_85_MOHC.PRM
  Tot(47)        6        6     2027    128.0    581.5   1541.7   438.00      0.0    127.5      0.5      0.0      0.0     89.8       29    237.1    236.5       84     0.000     0.000     0.000     0.000      107        0        0        0        3       23       10    16.058       68     40.6    6.520   -9.900     1.99    0.000    0.000       26        9     2027  Maize_short_Cahul_6June_Optimum_85_MOHC.PRM
  Tot(48)        6        6     2028     51.8    701.3   1593.8   442.00      0.0     51.8      0.0      0.0      0.0     89.4       18    154.6    155.6       77     0.000     0.000     0.000     0.000       87        0        0        0        0       38       18     7.391       30     24.1    1.782   -9.900     0.74    0.000    0.000       26        9     2028  Maize_short_Cahul_6June_Optimum_85_MOHC.PRM
  Tot(49)        6        6     2029    118.1    602.8   1526.0   445.00      0.0    112.1      6.0      9.4      0.0    126.6       35    186.5    186.5       79     0.000     0.000     0.000     0.000       96        0        0        0        1       27       18    11.350       49     33.1    3.751   -9.900     1.20    0.000    0.000       26        9     2029  Maize_short_Cahul_6June_Optimum_85_MOHC.PRM
  Tot(50)        6        6     2030    107.5    597.1   1494.7   449.00      0.0    103.5      4.0      3.3      0.0    115.4       34    199.8    199.8       78     0.000     0.000     0.000     0.000       98        0        0        0        1       22       19    12.129       52     34.9    4.229   -9.900     1.36    0.000    0.000       26        9     2030  Maize_short_Cahul_6June_Optimum_85_MOHC.PRM
  Tot(51)        6        6     2031     24.8    672.1   1619.6   452.00      0.0     24.8      0.0      0.0      0.0     62.5       14    166.8    166.8       77     0.000     0.000     0.000     0.000       93        0        0        0        1       33       18     9.121       39     30.1    2.750   -9.900     1.21    0.000    0.000       26        9     2031  Maize_short_Cahul_6June_Optimum_85_MOHC.PRM
  Tot(52)        6        6     2032    112.0    590.8   1513.4   456.00      0.0    109.4      2.6      0.0      0.0     63.6       19    256.1    255.0       93     0.000     0.000     0.000     0.000      107        0        0        0        4       16        6    18.422       78     40.1    7.390   -9.900     2.31    0.000    0.000       26        9     2032  Maize_short_Cahul_6June_Optimum_85_MOHC.PRM
  Tot(53)        6        6     2033     56.4    671.8   1680.2   460.00      0.0     56.4      0.0      0.0      0.0     83.9       19    175.5    176.6       78     0.000     0.000     0.000     0.000       98        0        0        0        1       33       17     9.895       40     35.3    3.493   -9.900     1.35    0.000    0.000       26        9     2033  Maize_short_Cahul_6June_Optimum_85_MOHC.PRM
  Tot(54)        6        6     2034     29.4    772.9   1708.3   464.00      0.0     29.4      0.0      0.0      0.0     72.8       12    144.6    144.6       78     0.000     0.000     0.000     0.000       89        0        0        0        0       41       17     6.304       26     26.3    1.657   -9.900     0.79    0.000    0.000       26        9     2034  Maize_short_Cahul_6June_Optimum_85_MOHC.PRM
  Tot(55)        6        6     2035     55.4    659.4   1581.4   468.00      0.0     55.4      0.0      0.0      0.0     76.3       16    158.1    158.1       78     0.000     0.000     0.000     0.000      107        0        0        0        5       37       17     8.011       34     40.5    3.241   -9.900     1.38    0.000    0.000       26        9     2035  Maize_short_Cahul_6June_Optimum_85_MOHC.PRM
  Tot(56)        6        6     2036     27.6    728.2   1740.8   472.00      0.0     27.2      0.4      0.0      0.0     68.5       12    148.3    148.3       80     0.000     0.000     0.000     0.000       90        0        0        0        0       40       16     7.083       29     26.3    1.864   -9.900     0.87    0.000    0.000       26        9     2036  Maize_short_Cahul_6June_Optimum_85_MOHC.PRM
  Tot(57)        6        6     2037    162.9    587.8   1494.9   476.00      0.0    149.1     13.8      0.0      0.0     94.6       26    238.7    238.4       95     0.000     0.000     0.000     0.000      107        0        0        0        3       29        3    16.869       70     40.3    6.801   -9.900     2.04    0.000    0.000       26        9     2037  Maize_short_Cahul_6June_Optimum_85_MOHC.PRM
  Tot(58)        6        6     2038     63.6    636.4   1723.3   481.00      0.0     63.6      0.0      0.0      0.0     91.1       23    177.5    177.9       78     0.000     0.000     0.000     0.000       92        0        0        0        1       31       19     9.801       39     29.1    2.850   -9.900     1.08    0.000    0.000       26        9     2038  Maize_short_Cahul_6June_Optimum_85_MOHC.PRM
  Tot(59)        6        6     2039     60.2    697.9   1723.1   485.00      0.0     55.3      4.9      4.8      0.0     82.0       16    153.9    153.9       77     0.000     0.000     0.000     0.000       91        0        0        0        1       37       18     7.712       31     27.2    2.099   -9.900     0.92    0.000    0.000       26        9     2039  Maize_short_Cahul_6June_Optimum_85_MOHC.PRM
  Tot(60)        6        6     2040      5.8    740.7   1743.9   489.00      0.0      5.8      0.0      0.0      0.0     47.8        9    162.9    162.9       80     0.000     0.000     0.000     0.000       97        0        0        0        0       36       17     8.904       36     33.2    2.956   -9.900     1.42    0.000    0.000       26        9     2040  Maize_short_Cahul_6June_Optimum_85_MOHC.PRM
  Tot(61)        6        6     2041     46.8    762.2   1709.2   494.00      0.0     44.8      2.0      5.9      0.0     79.8       13    143.8    143.8       78     0.000     0.000     0.000     0.000       90        0        0        0        0       42       17     6.220       25     22.8    1.415   -9.900     0.64    0.000    0.000       26        9     2041  Maize_short_Cahul_6June_Optimum_85_MOHC.PRM
  Tot(62)        6        6     2042     48.6    660.6   1638.6   499.00      0.0     48.3      0.3      0.0      0.0     80.8       18    171.1    171.1       78     0.000     0.000     0.000     0.000       93        0        0        0        1       32       18     9.619       39     30.4    2.929   -9.900     1.17    0.000    0.000       26        9     2042  Maize_short_Cahul_6June_Optimum_85_MOHC.PRM
  Tot(63)        6        6     2043     58.7    807.5   1772.5   504.00      0.0     58.5      0.2      0.0      0.0     76.1       11    149.4    149.3       84     0.000     0.000     0.000     0.000      107        0        0        0        2       43       12     7.173       29      8.7    0.626   -9.900     0.28    0.000    0.000       26        9     2043  Maize_short_Cahul_6June_Optimum_85_MOHC.PRM
  Tot(64)        6        6     2044     50.3    669.1   1701.8   508.00      0.0     50.3      0.0      0.0      0.0     83.9       19    164.0    164.1       77     0.000     0.000     0.000     0.000       89        0        0        0        1       34       18     8.724       35     26.1    2.277   -9.900     0.92    0.000    0.000       26        9     2044  Maize_short_Cahul_6June_Optimum_85_MOHC.PRM
  Tot(65)        6        6     2045    148.4    654.5   1555.9   513.00      0.0    133.9     14.5      1.7      0.0    112.1       28    213.7    213.6       82     0.000     0.000     0.000     0.000      107        0        0        0        4       35       11    12.888       54     20.3    2.620   -9.900     0.80    0.000    0.000       26        9     2045  Maize_short_Cahul_6June_Optimum_85_MOHC.PRM
  Tot(66)        6        6     2046     75.7    645.4   1624.6   519.00      0.0     75.7      0.0      0.0      0.0     87.3       20    166.0    166.1       80     0.000     0.000     0.000     0.000       96        0        0        0        2       36       17     9.238       38     32.4    2.993   -9.900     1.24    0.000    0.000       26        9     2046  Maize_short_Cahul_6June_Optimum_85_MOHC.PRM
  Tot(67)        6        6     2047     20.4    735.9   1692.0   524.00      0.0     20.4      0.0      0.0      0.0     64.9       11    150.9    150.9       80     0.000     0.000     0.000     0.000       96        0        0        0        1       39       16     7.625       31     23.5    1.794   -9.900     0.87    0.000    0.000       26        9     2047  Maize_short_Cahul_6June_Optimum_85_MOHC.PRM
  Tot(68)        6        6     2048     49.8    678.6   1720.6   529.00      0.0     47.9      1.9      1.0      0.0     84.0       18    158.5    158.5       76     0.000     0.000     0.000     0.000       89        0        0        0        0       35       18     8.227       33     19.2    1.584   -9.900     0.66    0.000    0.000       26        9     2048  Maize_short_Cahul_6June_Optimum_85_MOHC.PRM
  Tot(69)        6        6     2049     66.0    709.3   1668.8   535.00      0.0     65.8      0.2      0.0      0.0     94.6       18    156.8    156.8       80     0.000     0.000     0.000     0.000      106        0        0        0        2       39       14     7.847       32     40.6    3.189   -9.900     1.27    0.000    0.000       26        9     2049  Maize_short_Cahul_6June_Optimum_85_MOHC.PRM
  Tot(70)        6        6     2050     67.5    678.6   1774.2   541.00      0.0     67.5      0.0      0.0      0.0     97.5       22    176.9    176.9       76     0.000     0.000     0.000     0.000       93        0        0        0        0       31       19    10.053       40     30.0    3.019   -9.900     1.11    0.000    0.000       26        9     2050  Maize_short_Cahul_6June_Optimum_85_MOHC.PRM
  Tot(71)        6        6     2051     31.8    674.1   1644.6   546.00      0.0     31.8      0.0      0.0      0.0     64.1       13    154.6    154.6       78     0.000     0.000     0.000     0.000       90        0        0        0        1       37       17     7.951       32     26.2    2.085   -9.900     0.98    0.000    0.000       26        9     2051  Maize_short_Cahul_6June_Optimum_85_MOHC.PRM
  Tot(72)        6        6     2052     55.7    716.2   1635.9   552.00      0.0     53.9      1.8      1.0      0.0     84.9       16    160.9    160.5       80     0.000     0.000     0.000     0.000      107        0        0        0        2       39       16     8.580       35     40.6    3.485   -9.900     1.42    0.000    0.000       26        9     2052  Maize_short_Cahul_6June_Optimum_85_MOHC.PRM
  Tot(73)        6        6     2053     80.3    662.1   1698.6   558.00      0.0     76.5      3.8      7.0      0.0     93.9       20    158.8    159.2       79     0.000     0.000     0.000     0.000       98        0        0        0        0       38       16     8.415       35     34.4    2.898   -9.900     1.16    0.000    0.000       26        9     2053  Maize_short_Cahul_6June_Optimum_85_MOHC.PRM
  Tot(74)        6        6     2054     84.4    667.3   1743.7   564.00      0.0     81.3      3.1      5.2      0.0     90.1       19    177.8    177.4       82     0.000     0.000     0.000     0.000      107        0        0        0        1       40       12    10.176       41     40.8    4.147   -9.900     1.55    0.000    0.000       26        9     2054  Maize_short_Cahul_6June_Optimum_85_MOHC.PRM
  Tot(75)        6        6     2055     54.1    714.6   1673.5   571.00      0.0     53.7      0.4      0.0      0.0     88.1       16    148.4    148.8       80     0.000     0.000     0.000     0.000       90        0        0        0        1       40       16     7.156       30     25.3    1.811   -9.900     0.80    0.000    0.000       26        9     2055  Maize_short_Cahul_6June_Optimum_85_MOHC.PRM
  Tot(76)        6        6     2056    151.5    606.7   1591.2   577.00      0.0    136.9     14.6     26.1      0.0    115.2       32    191.4    191.2       77     0.000     0.000     0.000     0.000      107        0        0        0        4       35       17    11.469       47     40.5    4.648   -9.900     1.52    0.000    0.000       26        9     2056  Maize_short_Cahul_6June_Optimum_85_MOHC.PRM
  Tot(77)        6        6     2057    158.1    628.6   1598.8   583.00      0.0    151.3      6.8      6.9      0.0    150.3       38    174.6    174.8       78     0.000     0.000     0.000     0.000      107        0        0        0        4       32       16    10.169       42     40.4    4.112   -9.900     1.27    0.000    0.000       26        9     2057  Maize_short_Cahul_6June_Optimum_85_MOHC.PRM
  Tot(78)        6        6     2058     92.9    747.3   1780.8   590.00      0.0     88.1      4.8      0.0      0.0     78.9       14    154.9    155.0       82     0.000     0.000     0.000     0.000       98        0        0        0        0       39       15     8.171       33     34.8    2.844   -9.900     1.25    0.000    0.000       26        9     2058  Maize_short_Cahul_6June_Optimum_85_MOHC.PRM
  Tot(79)        6        6     2059    109.2    631.8   1749.4   597.00      0.0    109.1      0.1      0.0      0.0    132.5       36    180.0    180.0       76     0.000     0.000     0.000     0.000       91        0        0        0        0       28       19    10.261       41     13.2    1.356   -9.900     0.44    0.000    0.000       26        9     2059  Maize_short_Cahul_6June_Optimum_85_MOHC.PRM
  Tot(80)        6        6     2060     74.5    792.1   1881.7   604.00      0.0     73.4      1.1      0.0      0.0     96.1       15    150.5    150.1       83     0.000     0.000     0.000     0.000      107        0        0        0        1       43       12     7.378       30     30.1    2.223   -9.900     0.90    0.000    0.000       26        9     2060  Maize_short_Cahul_6June_Optimum_85_MOHC.PRM
  Tot(81)        6        6     2061     19.9    733.5   1807.2   611.00      0.0     19.6      0.3      1.7      0.0     60.1       11    150.5    150.9       81     0.000     0.000     0.000     0.000       94        0        0        0        0       41       16     7.531       30     31.4    2.366   -9.900     1.14    0.000    0.000       26        9     2061  Maize_short_Cahul_6June_Optimum_85_MOHC.PRM
  Tot(82)        6        6     2062     38.4    754.8   1832.8   618.00      0.0     38.3      0.1      0.0      0.0     70.7       13    170.6    170.6       78     0.000     0.000     0.000     0.000      107        0        0        0        1       40       19     8.605       34     27.7    2.382   -9.900     0.99    0.000    0.000       26        9     2062  Maize_short_Cahul_6June_Optimum_85_MOHC.PRM
  Tot(83)        6        6     2063     42.0    663.0   1672.0   625.00      0.0     42.0      0.0      0.0      0.0     75.5       17    157.2    157.3       76     0.000     0.000     0.000     0.000       89        0        0        0        1       35       18     8.322       33     26.2    2.179   -9.900     0.97    0.000    0.000       26        9     2063  Maize_short_Cahul_6June_Optimum_85_MOHC.PRM
  Tot(84)        6        6     2064     54.5    729.8   1834.9   632.00      0.0     54.3      0.2      0.0      0.0     77.2       15    170.7    170.7       79     0.000     0.000     0.000     0.000      107        0        0        0        3       37       15     9.607       39      7.3    0.703   -9.900     0.28    0.000    0.000       26        9     2064  Maize_short_Cahul_6June_Optimum_85_MOHC.PRM
  Tot(85)        6        6     2065     33.6    651.1   1673.9   639.00      0.0     33.6      0.0      0.0      0.0     72.4       17    161.9    161.9       78     0.000     0.000     0.000     0.000       94        0        0        0        0       35       18     9.170       38     31.3    2.867   -9.900     1.24    0.000    0.000       26        9     2065  Maize_short_Cahul_6June_Optimum_85_MOHC.PRM
  Tot(86)        6        6     2066     18.1    724.8   1853.4   647.00      0.0     18.1      0.0      0.0      0.0     60.9       11    150.6    150.6       81     0.000     0.000     0.000     0.000       98        0        0        0        0       40       16     7.844       31     34.5    2.708   -9.900     1.29    0.000    0.000       26        9     2066  Maize_short_Cahul_6June_Optimum_85_MOHC.PRM
  Tot(87)        6        6     2067     80.6    753.2   1869.8   654.00      0.0     76.4      4.2      4.0      0.0    112.0       19    149.0    149.0       79     0.000     0.000     0.000     0.000       93        0        0        0        0       40       16     7.070       28     28.4    2.007   -9.900     0.78    0.000    0.000       26        9     2067  Maize_short_Cahul_6June_Optimum_85_MOHC.PRM
  Tot(88)        6        6     2068     83.7    683.3   1784.7   662.00      0.0     81.2      2.5      0.4      0.0    108.3       26    177.6    177.6       73     0.000     0.000     0.000     0.000       90        0        0        0        0       27       20    10.038       40     18.6    1.867   -9.900     0.67    0.000    0.000       26        9     2068  Maize_short_Cahul_6June_Optimum_85_MOHC.PRM
  Tot(89)        6        6     2069    114.2    672.3   1764.7   669.00      0.0     99.6     14.6     19.0      0.0    109.8       26    168.2    168.2       75     0.000     0.000     0.000     0.000       88        0        0        0        0       32       19     9.200       37     21.1    1.941   -9.900     0.70    0.000    0.000       26        9     2069  Maize_short_Cahul_6June_Optimum_85_MOHC.PRM
  Tot(90)        6        6     2070     20.8    764.5   1870.5   677.00      0.0     20.8      0.0      0.0      0.0     63.2       11    147.7    147.7       80     0.000     0.000     0.000     0.000       93        0        0        0        0       41       16     7.143       28     29.4    2.098   -9.900     1.02    0.000    0.000       26        9     2070  Maize_short_Cahul_6June_Optimum_85_MOHC.PRM
  Tot(91)        6        6     2071    103.9    753.6   1894.2   685.00      0.0     98.4      5.5      0.0      0.0     93.5       15    157.8    157.1       88     0.000     0.000     0.000     0.000      107        0        0        0        0       43        7     8.816       35     24.0    2.115   -9.900     0.84    0.000    0.000       26        9     2071  Maize_short_Cahul_6June_Optimum_85_MOHC.PRM
  Tot(92)        6        6     2072     18.5    751.4   1871.4   693.00      0.0     18.5      0.0      0.0      0.0     60.9       11    148.2    148.9       77     0.000     0.000     0.000     0.000       90        0        0        0        0       39       18     7.100       28     26.2    1.862   -9.900     0.89    0.000    0.000       26        9     2072  Maize_short_Cahul_6June_Optimum_85_MOHC.PRM
  Tot(93)        6        6     2073     97.1    697.8   1789.7   701.00      0.0     94.1      3.0      3.3      0.0    122.1       26    159.4    159.4       76     0.000     0.000     0.000     0.000       90        0        0        0        0       35       18     8.235       33     27.2    2.238   -9.900     0.80    0.000    0.000       26        9     2073  Maize_short_Cahul_6June_Optimum_85_MOHC.PRM
  Tot(94)        6        6     2074     35.2    779.5   1843.6   709.00      0.0     35.2      0.0      0.0      0.0     68.1       11    146.9    146.9       80     0.000     0.000     0.000     0.000       98        0        0        0        0       42       16     7.069       28     33.5    2.368   -9.900     1.14    0.000    0.000       26        9     2074  Maize_short_Cahul_6June_Optimum_85_MOHC.PRM
  Tot(95)        6        6     2075     25.8    747.7   1909.3   717.00      0.0     25.8      0.0      0.0      0.0     66.2       12    155.9    155.9       83     0.000     0.000     0.000     0.000      101        0        0        0        0       40       15     8.640       34     21.0    1.812   -9.900     0.82    0.000    0.000       26        9     2075  Maize_short_Cahul_6June_Optimum_85_MOHC.PRM
  Tot(96)        6        6     2076     27.4    760.8   1885.7   725.00      0.0     27.4      0.0      0.0      0.0     69.5       12    151.6    151.6       76     0.000     0.000     0.000     0.000       90        0        0        0        0       38       17     7.527       30     15.9    1.199   -9.900     0.56    0.000    0.000       26        9     2076  Maize_short_Cahul_6June_Optimum_85_MOHC.PRM
  Tot(97)        6        6     2077     55.0    705.9   1845.6   733.00      0.0     54.7      0.3      0.0      0.0     76.3       16    184.5    184.1       78     0.000     0.000     0.000     0.000      107        0        0        0        0       37       17    10.668       43     10.9    1.163   -9.900     0.45    0.000    0.000       26        9     2077  Maize_short_Cahul_6June_Optimum_85_MOHC.PRM
  Tot(98)        6        6     2078    114.3    688.5   1864.8   742.00      0.0    114.0      0.3      0.0      0.0    133.8       31    171.5    171.9       76     0.000     0.000     0.000     0.000       94        0        0        0        0       32       19     9.649       39      7.7    0.744   -9.900     0.26    0.000    0.000       26        9     2078  Maize_short_Cahul_6June_Optimum_85_MOHC.PRM
  Tot(99)        6        6     2079     23.7    751.8   1920.8   750.00      0.0     23.7      0.0      0.0      0.0     67.5       12    153.6    153.6       84     0.000     0.000     0.000     0.000      101        0        0        0        0       39       14     8.267       33     26.3    2.178   -9.900     1.02    0.000    0.000       26        9     2079  Maize_short_Cahul_6June_Optimum_85_MOHC.PRM
 Tot(100)        6        6     2080     82.7    785.8   1994.4   758.00      0.0     82.6      0.1      0.0      0.0    111.4       20    178.6    178.6       79     0.000     0.000     0.000     0.000       96        0        0        0        0       32       17     9.683       39      5.9    0.568   -9.900     0.20    0.000    0.000       26        9     2080  Maize_short_Cahul_6June_Optimum_85_MOHC.PRM
 Tot(101)        6        6     2081     79.3    708.3   1856.9   767.00      0.0     76.3      3.0      1.9      0.0    112.7       22    153.3    153.3       78     0.000     0.000     0.000     0.000       93        0        0        0        0       37       17     8.147       34     21.5    1.754   -9.900     0.67    0.000    0.000       26        9     2081  Maize_short_Cahul_6June_Optimum_85_MOHC.PRM
 Tot(102)        6        6     2082     25.3    778.9   1953.3   775.00      0.0     24.7      0.6      0.0      0.0     67.0       11    148.1    148.1       78     0.000     0.000     0.000     0.000       92        0        0        0        0       40       17     7.095       29      0.8    0.054   -9.900     0.03    0.000    0.000       26        9     2082  Maize_short_Cahul_6June_Optimum_85_MOHC.PRM
 Tot(103)        6        6     2083     17.9    807.0   1912.1   784.00      0.0     17.9      0.0      0.0      0.0     62.5       10    143.3    143.3       83     0.000     0.000     0.000     0.000       97        0        0        0        0       43       15     6.620       27      0.1    0.007   -9.900     0.00    0.000    0.000       26        9     2083  Maize_short_Cahul_6June_Optimum_85_MOHC.PRM
 Tot(104)        6        6     2084     43.8    692.6   1832.6   792.00      0.0     41.3      2.5      7.4      0.0     63.9       15    171.7    171.7       76     0.000     0.000     0.000     0.000       90        0        0        0        1       30       20     9.753       39     12.9    1.256   -9.900     0.54    0.000    0.000       26        9     2084  Maize_short_Cahul_6June_Optimum_85_MOHC.PRM
 Tot(105)        6        6     2085     97.0    784.2   1972.6   801.00      0.0     92.3      4.7      0.0      0.0    109.7       18    151.6    151.6       79     0.000     0.000     0.000     0.000       94        0        0        0        0       40       16     7.487       30     30.4    2.273   -9.900     0.95    0.000    0.000       26        9     2085  Maize_short_Cahul_6June_Optimum_85_MOHC.PRM
 Tot(106)        6        6     2086     32.4    737.4   1932.8   810.00      0.0     32.4      0.0      0.0      0.0     70.1       13    154.8    154.8       81     0.000     0.000     0.000     0.000       96        0        0        0        0       38       16     8.323       34     33.5    2.784   -9.900     1.25    0.000    0.000       26        9     2086  Maize_short_Cahul_6June_Optimum_85_MOHC.PRM
 Tot(107)        6        6     2087     22.2    796.9   1945.0   818.00      0.0     22.2      0.0      0.0      0.0     60.3        9    155.6    155.6       85     0.000     0.000     0.000     0.000      107        0        0        0        0       42       13     8.393       34     18.8    1.576   -9.900     0.73    0.000    0.000       26        9     2087  Maize_short_Cahul_6June_Optimum_85_MOHC.PRM
 Tot(108)        6        6     2088     44.0    838.2   1955.6   827.00      0.0     43.5      0.5      0.0      0.0     58.5        9    175.8    175.4       82     0.000     0.000     0.000     0.000      107        0        0        0        0       40       15     9.559       39     10.0    0.953   -9.900     0.41    0.000    0.000       26        9     2088  Maize_short_Cahul_6June_Optimum_85_MOHC.PRM
 Tot(109)        6        6     2089     30.3    818.1   1972.4   836.00      0.0     30.3      0.0      0.0      0.0     72.4       11    147.5    148.0       82     0.000     0.000     0.000     0.000       98        0        0        0        0       42       15     7.171       29      9.0    0.644   -9.900     0.31    0.000    0.000       26        9     2089  Maize_short_Cahul_6June_Optimum_85_MOHC.PRM
 Tot(110)        6        6     2090     48.5    728.4   1910.4   845.00      0.0     45.7      2.8      6.2      0.0     79.0       15    148.6    148.6       77     0.000     0.000     0.000     0.000       93        0        0        0        0       39       17     7.202       29     20.9    1.508   -9.900     0.68    0.000    0.000       26        9     2090  Maize_short_Cahul_6June_Optimum_85_MOHC.PRM
 Tot(111)        6        6     2091     36.7    864.9   2037.3   854.00      0.0     34.5      2.2      2.9      0.0     76.8       10    143.8    143.7       88     0.000     0.000     0.000     0.000      107        0        0        0        0       44       11     6.718       27      0.4    0.025   -9.900     0.01    0.000    0.000       26        9     2091  Maize_short_Cahul_6June_Optimum_85_MOHC.PRM
 Tot(112)        6        6     2092     16.0    828.6   1953.7   863.00      0.0     16.0      0.0      0.0      0.0     62.6        9    144.3    144.4       83     0.000     0.000     0.000     0.000       99        0        0        0        0       42       14     6.954       29     28.4    1.975   -9.900     0.97    0.000    0.000       26        9     2092  Maize_short_Cahul_6June_Optimum_85_MOHC.PRM
 Tot(113)        6        6     2093     35.9    846.8   2037.9   872.00      0.0     35.9      0.0      0.0      0.0     80.6       11    140.2    140.2       86     0.000     0.000     0.000     0.000      107        0        0        0        0       45       13     6.337       26      6.9    0.440   -9.900     0.20    0.000    0.000       26        9     2093  Maize_short_Cahul_6June_Optimum_85_MOHC.PRM
 Tot(114)        6        6     2094     48.0    850.5   2010.7   881.00      0.0     47.1      0.9      0.0      0.0     75.4       11    149.6    149.6       82     0.000     0.000     0.000     0.000       99        0        0        0        0       41       15     7.373       31      5.4    0.400   -9.900     0.19    0.000    0.000       26        9     2094  Maize_short_Cahul_6June_Optimum_85_MOHC.PRM
 Tot(115)        6        6     2095     16.2    818.8   1966.6   890.00      0.0     16.2      0.0      0.0      0.0     54.8        8    145.2    145.2       84     0.000     0.000     0.000     0.000      107        0        0        0        1       43       14     6.753       28     14.5    0.979   -9.900     0.49    0.000    0.000       26        9     2095  Maize_short_Cahul_6June_Optimum_85_MOHC.PRM
 Tot(116)        6        6     2096     11.1    818.0   2056.5   899.00      0.0     11.1      0.0      0.0      0.0     56.4        9    150.3    150.3       78     0.000     0.000     0.000     0.000      107        0        0        0        0       38       27     7.438       31      4.8    0.354   -9.900     0.17    0.000    0.000       26        9     2096  Maize_short_Cahul_6June_Optimum_85_MOHC.PRM
 Tot(117)        6        6     2097     20.6    754.8   1920.6   908.00      0.0     20.6      0.0      0.0      0.0     64.2       11    152.9    152.9       83     0.000     0.000     0.000     0.000      101        0        0        0        0       39       15     8.195       34     36.5    2.993   -9.900     1.38    0.000    0.000       26        9     2097  Maize_short_Cahul_6June_Optimum_85_MOHC.PRM
 Tot(118)        6        6     2098     66.5    769.0   1956.0   917.00      0.0     66.5      0.0      0.0      0.0     90.3       15    149.4    149.3       82     0.000     0.000     0.000     0.000      107        0        0        0        1       42       13     7.295       31     24.2    1.767   -9.900     0.74    0.000    0.000       26        9     2098  Maize_short_Cahul_6June_Optimum_85_MOHC.PRM
 Tot(119)        6        6     2099     99.1    694.2   1938.7   927.00      0.0     91.0      8.1     11.4      0.0     93.3       25    195.1    195.2       75     0.000     0.000     0.000     0.000       93        0        0        0        0       23       20    10.836       45     21.5    2.325   -9.900     0.81    0.000    0.000       26        9     2099  Maize_short_Cahul_6June_Optimum_85_MOHC.PRM
