AquaCrop 7.0 (August 2022) - Output created on (date) : 24-11-2022   at (time) : 10:35:53

    RunNr     Day1   Month1    Year1     Rain      ETo       GD     CO2      Irri   Infilt   Runoff    Drain   Upflow        E     E/Ex       Tr      TrW   Tr/Trx    SaltIn   SaltOut    SaltUp  SaltProf     Cycle   SaltStr  FertStr  WeedStr  TempStr   ExpStr   StoStr  BioMass  Brelative   HI    Y(dry)  Y(fresh)    WPet      Bin     Bout     DayN   MonthN    YearN
                                           mm       mm  degC.day    ppm        mm       mm       mm       mm       mm       mm        %       mm       mm        %    ton/ha    ton/ha    ton/ha    ton/ha      days       %        %        %        %        %        %    ton/ha        %       %    ton/ha   ton/ha    kg/m3   ton/ha   ton/ha
   Tot(1)        7        5     1981    330.3    462.9   1198.4   340.11      0.0    283.1     47.2     56.3      0.0    109.4       56    275.1    275.7      100     0.000     0.000     0.000     0.000      107        0        0        0       13        1        0    20.792       97     40.0    8.317   -9.900     2.16    0.000    0.000       27        8     1981  Maize_Short_Soroca_7May_Optimum_85_MOHC.PRM
   Tot(2)        7        5     1982    276.4    461.1   1144.9   341.22      0.0    241.0     35.4     37.5      0.0     91.0       42    247.8    245.9      100     0.000     0.000     0.000     0.000      107        0        0        0       15        2        0    20.015       96     40.0    8.006   -9.900     2.36    0.000    0.000       27        8     1982  Maize_Short_Soroca_7May_Optimum_85_MOHC.PRM
   Tot(3)        7        5     1983    225.7    446.3   1210.8   342.84      0.0    220.5      5.2      1.0      0.0     89.5       45    244.5    245.0      100     0.000     0.000     0.000     0.000      107        0        0        0        9        2        0    20.424       96     40.0    8.174   -9.900     2.45    0.000    0.000       27        8     1983  Maize_Short_Soroca_7May_Optimum_85_MOHC.PRM
   Tot(4)        7        5     1984    347.7    420.8   1026.2   344.40      0.0    328.6     19.1     25.4      0.0    144.0       85    231.4    232.8      100     0.000     0.000     0.000     0.000      107        0        0        0       20        0        0    19.009       98     40.0    7.604   -9.900     2.03    0.000    0.000       27        8     1984  Maize_Short_Soroca_7May_Optimum_85_MOHC.PRM
   Tot(5)        7        5     1985    364.9    454.7   1143.8   345.87      0.0    324.5     40.4     56.7      0.0    131.4       68    253.5    250.6      100     0.000     0.000     0.000     0.000      107        0        0        0       15        0        0    19.959       98     40.0    7.984   -9.900     2.07    0.000    0.000       27        8     1985  Maize_Short_Soroca_7May_Optimum_85_MOHC.PRM
   Tot(6)        7        5     1986    164.7    525.3   1219.4   347.19      0.0    164.3      0.4      0.0      0.0     97.0       40    259.0    260.2       92     0.000     0.000     0.000     0.000      107        0        0        0       12        8        5    17.926       86     40.0    7.177   -9.900     2.02    0.000    0.000       27        8     1986  Maize_Short_Soroca_7May_Optimum_85_MOHC.PRM
   Tot(7)        7        5     1987    273.7    465.1   1100.2   348.98      0.0    263.6     10.1     12.9      0.0    131.5       71    274.3    273.3      100     0.000     0.000     0.000     0.000      107        0        0        0       19        6        0    19.794       96     40.4    8.000   -9.900     1.97    0.000    0.000       27        8     1987  Maize_Short_Soroca_7May_Optimum_85_MOHC.PRM
   Tot(8)        7        5     1988    304.7    440.0   1217.4   351.45      0.0    290.1     14.6     30.8      0.0    131.0       80    283.6    287.0      100     0.000     0.000     0.000     0.000      107        0        0        0       10        1        0    21.617       98     40.0    8.653   -9.900     2.09    0.000    0.000       27        8     1988  Maize_Short_Soroca_7May_Optimum_85_MOHC.PRM
   Tot(9)        7        5     1989    282.2    464.6   1130.1   352.89      0.0    262.4     19.8     25.4      0.0    101.1       53    275.0    273.7      100     0.000     0.000     0.000     0.000      107        0        0        0       15        2        0    20.739       97     40.1    8.313   -9.900     2.21    0.000    0.000       27        8     1989  Maize_Short_Soroca_7May_Optimum_85_MOHC.PRM
  Tot(10)        7        5     1990    185.9    477.8   1101.1   354.16      0.0    184.2      1.7      2.5      0.0    113.8       58    266.9    266.9       95     0.000     0.000     0.000     0.000      107        0        0        0       18        3        4    19.765       91     40.0    7.913   -9.900     2.08    0.000    0.000       27        8     1990  Maize_Short_Soroca_7May_Optimum_85_MOHC.PRM
  Tot(11)        7        5     1991    456.1    412.7   1129.9   355.48      0.0    403.6     52.5     46.9      0.0    128.5       85    271.1    271.6      100     0.000     0.000     0.000     0.000      107        0        0        0       20        0        0    22.044       98     40.0    8.819   -9.900     2.21    0.000    0.000       27        8     1991  Maize_Short_Soroca_7May_Optimum_85_MOHC.PRM
  Tot(12)        7        5     1992    184.4    507.5   1204.4   356.27      0.0    182.6      1.8      4.3      0.0    130.3       69    268.1    268.2       83     0.000     0.000     0.000     0.000      107        0        0        0       16        5       12    17.662       78     39.7    7.016   -9.900     1.76    0.000    0.000       27        8     1992  Maize_Short_Soroca_7May_Optimum_85_MOHC.PRM
  Tot(13)        7        5     1993    225.5    480.7   1127.5   356.95      0.0    219.8      5.7      9.9      0.0    124.3       62    266.5    266.2       99     0.000     0.000     0.000     0.000      107        0        0        0       14        1        1    19.881       97     40.0    7.957   -9.900     2.04    0.000    0.000       27        8     1993  Maize_Short_Soroca_7May_Optimum_85_MOHC.PRM
  Tot(14)        7        5     1994    261.0    521.2   1199.0   358.63      0.0    230.3     30.7     13.8      0.0    119.5       54    248.1    249.0       83     0.000     0.000     0.000     0.000      107        0        0        0       13        7       12    16.089       73     39.6    6.366   -9.900     1.73    0.000    0.000       27        8     1994  Maize_Short_Soroca_7May_Optimum_85_MOHC.PRM
  Tot(15)        7        5     1995    305.1    494.6   1256.9   360.62      0.0    274.9     30.2     13.8      0.0    116.1       57    305.4    304.4      100     0.000     0.000     0.000     0.000      107        0        0        0        8        3        0    22.157       96     40.1    8.884   -9.900     2.11    0.000    0.000       27        8     1995  Maize_Short_Soroca_7May_Optimum_85_MOHC.PRM
  Tot(16)        7        5     1996    285.8    501.1   1244.3   362.37      0.0    267.2     18.6      8.4      0.0     98.7       42    272.6    272.1      100     0.000     0.000     0.000     0.000      107        0        0        0       11        3        0    20.653       95     40.0    8.263   -9.900     2.23    0.000    0.000       27        8     1996  Maize_Short_Soroca_7May_Optimum_85_MOHC.PRM
  Tot(17)        7        5     1997    299.6    455.8   1162.2   363.47      0.0    285.4     14.2      0.0      0.0    100.3       49    256.7    256.6      100     0.000     0.000     0.000     0.000      107        0        0        0       14        2        0    21.442       96     40.0    8.577   -9.900     2.40    0.000    0.000       27        8     1997  Maize_Short_Soroca_7May_Optimum_85_MOHC.PRM
  Tot(18)        7        5     1998    308.7    445.2   1198.7   366.50      0.0    287.4     21.3      4.9      0.0    123.3       70    271.9    271.2      100     0.000     0.000     0.000     0.000      107        0        0        0       17        1        0    21.071       97     40.0    8.429   -9.900     2.13    0.000    0.000       27        8     1998  Maize_Short_Soroca_7May_Optimum_85_MOHC.PRM
  Tot(19)        7        5     1999    155.2    512.9   1310.0   368.14      0.0    155.2      0.0      0.0      0.0     95.6       41    266.2    267.5       90     0.000     0.000     0.000     0.000      107        0        0        0       10       13        7    18.819       81     40.4    7.610   -9.900     2.10    0.000    0.000       27        8     1999  Maize_Short_Soroca_7May_Optimum_85_MOHC.PRM
  Tot(20)        7        5     2000    240.2    521.6   1223.8   369.41      0.0    230.6      9.6      0.0      0.0     90.6       37    285.6    286.2      100     0.000     0.000     0.000     0.000      107        0        0        0       13        5        0    20.529       94     40.0    8.214   -9.900     2.18    0.000    0.000       27        8     2000  Maize_Short_Soroca_7May_Optimum_85_MOHC.PRM
  Tot(21)        7        5     2001    255.6    491.7   1222.5   371.07      0.0    247.3      8.3     18.7      0.0    121.2       66    307.8    306.8       97     0.000     0.000     0.000     0.000      107        0        0        0       16        1        3    21.609       94     40.0    8.639   -9.900     2.01    0.000    0.000       27        8     2001  Maize_Short_Soroca_7May_Optimum_85_MOHC.PRM
  Tot(22)        7        5     2002    365.4    509.4   1309.6   373.16      0.0    331.0     34.4      0.0      0.0    127.4       58    304.0    303.1       99     0.000     0.000     0.000     0.000      107        0        0        0       10       16        1    21.326       92     40.8    8.711   -9.900     2.02    0.000    0.000       27        8     2002  Maize_Short_Soroca_7May_Optimum_85_MOHC.PRM
  Tot(23)        7        5     2003    329.8    556.2   1316.9   375.80      0.0    274.8     55.0      3.2      0.0     87.3       30    282.5    281.0      100     0.000     0.000     0.000     0.000      107        0        0        0        7        9        0    20.739       91     40.0    8.296   -9.900     2.24    0.000    0.000       27        8     2003  Maize_Short_Soroca_7May_Optimum_85_MOHC.PRM
  Tot(24)        7        5     2004    239.4    487.9   1103.3   377.49      0.0    217.8     21.6      0.0      0.0     72.2       31    266.1    268.1      100     0.000     0.000     0.000     0.000      107        0        0        0       19       14        0    20.183       90     40.2    8.114   -9.900     2.40    0.000    0.000       27        8     2004  Maize_Short_Soroca_7May_Optimum_85_MOHC.PRM
  Tot(25)        7        5     2005    262.5    469.1   1193.2   379.80      0.0    243.3     19.2     22.7      0.0    108.8       56    282.0    281.1      100     0.000     0.000     0.000     0.000      107        0        0        0       11        4        0    21.900       96     40.1    8.782   -9.900     2.25    0.000    0.000       27        8     2005  Maize_Short_Soroca_7May_Optimum_85_MOHC.PRM
  Tot(26)        7        5     2006    315.6    495.5   1200.9   381.90      0.0    301.7     13.9     21.8      0.0    141.7       77    304.6    306.6       96     0.000     0.000     0.000     0.000      107        0        0        0       15        5        3    21.063       92     40.3    8.481   -9.900     1.90    0.000    0.000       27        8     2006  Maize_Short_Soroca_7May_Optimum_85_MOHC.PRM
  Tot(27)        7        5     2007    152.4    612.6   1444.4   383.77      0.0    152.1      0.3      0.0      0.0    125.1       36    232.9    233.0       83     0.000     0.000     0.000     0.000      107        0        0        0        3       24       12    14.395       61     40.4    5.816   -9.900     1.62    0.000    0.000       27        8     2007  Maize_Short_Soroca_7May_Optimum_85_MOHC.PRM
  Tot(28)        7        5     2008    341.8    530.8   1250.9   385.59      0.0    280.9     60.9      0.0      0.0    111.5       51    324.8    323.2       99     0.000     0.000     0.000     0.000      107        0        0        0        8       14        0    21.776       93     40.6    8.844   -9.900     2.03    0.000    0.000       27        8     2008  Maize_Short_Soroca_7May_Optimum_85_MOHC.PRM
  Tot(29)        7        5     2009    220.9    551.9   1276.6   387.37      0.0    219.1      1.8      1.4      0.0    136.6       60    298.5    299.9       89     0.000     0.000     0.000     0.000      107        0        0        0       11        4       10    19.274       83     39.9    7.685   -9.900     1.77    0.000    0.000       27        8     2009  Maize_Short_Soroca_7May_Optimum_85_MOHC.PRM
  Tot(30)        7        5     2010    341.4    489.0   1373.7   389.85      0.0    312.2     29.2     48.1      0.0    130.7       71    315.5    313.5       99     0.000     0.000     0.000     0.000      107        0        0        0        8        0        0    22.870       97     40.0    9.148   -9.900     2.05    0.000    0.000       27        8     2010  Maize_Short_Soroca_7May_Optimum_85_MOHC.PRM
  Tot(31)        7        5     2011    187.9    543.3   1287.2   391.63      0.0    185.0      2.9      1.0      0.0     95.4       38    289.1    290.0       96     0.000     0.000     0.000     0.000      107        0        0        0        8        5        3    20.520       90     40.1    8.220   -9.900     2.14    0.000    0.000       27        8     2011  Maize_Short_Soroca_7May_Optimum_85_MOHC.PRM
  Tot(32)        7        5     2012    144.1    600.6   1390.6   393.82      0.0    143.9      0.2      0.0      0.0    126.5       41    224.5    226.2       78     0.000     0.000     0.000     0.000      107        0        0        0        8       27       16    13.118       56     40.3    5.281   -9.900     1.50    0.000    0.000       27        8     2012  Maize_Short_Soroca_7May_Optimum_85_MOHC.PRM
  Tot(33)        7        5     2013    224.9    523.6   1339.0   396.48      0.0    216.4      8.5     10.5      0.0    145.5       69    271.1    270.5       85     0.000     0.000     0.000     0.000      107        0        0        0        6        4       11    19.039       80     39.5    7.526   -9.900     1.81    0.000    0.000       27        8     2013  Maize_Short_Soroca_7May_Optimum_85_MOHC.PRM
  Tot(34)        7        5     2014    310.9    505.5   1289.2   398.55      0.0    284.3     26.6     17.9      0.0    125.3       62    311.0    310.3      100     0.000     0.000     0.000     0.000      107        0        0        0        9        5        0    22.014       96     40.1    8.829   -9.900     2.02    0.000    0.000       27        8     2014  Maize_Short_Soroca_7May_Optimum_85_MOHC.PRM
  Tot(35)        7        5     2015     53.8    613.9   1324.9   402.00      0.0     53.8      0.0      0.2      0.0     81.0       23    188.9    190.7       77     0.000     0.000     0.000     0.000       98        0        0        0        8       27       19    11.278       48     35.0    3.947   -9.900     1.47    0.000    0.000       27        8     2015  Maize_Short_Soroca_7May_Optimum_85_MOHC.PRM
  Tot(36)        7        5     2016    260.0    524.9   1288.5   404.00      0.0    257.7      2.3      0.0      0.0    146.2       78    314.1    310.9       91     0.000     0.000     0.000     0.000      107        0        0        0       12        3        7    20.417       86     40.1    8.179   -9.900     1.78    0.000    0.000       27        8     2016  Maize_Short_Soroca_7May_Optimum_85_MOHC.PRM
  Tot(37)        7        5     2017    198.7    557.0   1274.9   407.00      0.0    197.7      1.0      0.3      0.0    125.5       55    289.0    291.3       86     0.000     0.000     0.000     0.000      107        0        0        0       10        8       10    19.078       81     40.0    7.626   -9.900     1.84    0.000    0.000       27        8     2017  Maize_Short_Soroca_7May_Optimum_85_MOHC.PRM
  Tot(38)        7        5     2018    243.9    523.5   1389.5   410.00      0.0    231.6     12.3      0.0      0.0     92.6       38    294.8    292.5      100     0.000     0.000     0.000     0.000      107        0        0        0        7        5        0    22.082       94     40.0    8.836   -9.900     2.28    0.000    0.000       27        8     2018  Maize_Short_Soroca_7May_Optimum_85_MOHC.PRM
  Tot(39)        7        5     2019    283.0    528.5   1353.3   413.00      0.0    260.1     22.9     36.0      0.0    154.4       77    289.9    292.2       87     0.000     0.000     0.000     0.000      107        0        0        0        4        5       10    19.805       84     39.9    7.902   -9.900     1.78    0.000    0.000       27        8     2019  Maize_Short_Soroca_7May_Optimum_85_MOHC.PRM
  Tot(40)        7        5     2020    190.1    597.3   1424.7   416.00      0.0    183.7      6.4     10.1      0.0    118.9       55    282.5    283.2       77     0.000     0.000     0.000     0.000      107        0        0        0        6        6       17    17.063       71     38.8    6.618   -9.900     1.65    0.000    0.000       27        8     2020  Maize_Short_Soroca_7May_Optimum_85_MOHC.PRM
  Tot(41)        7        5     2021    101.0    692.0   1471.4   419.00      0.0     98.2      2.8      5.5      0.0    114.1       27    184.3    184.6       73     0.000     0.000     0.000     0.000       92        0        0        0        8       31       20     9.428       39     29.2    2.755   -9.900     0.96    0.000    0.000       27        8     2021  Maize_Short_Soroca_7May_Optimum_85_MOHC.PRM
  Tot(42)        7        5     2022     85.8    599.6   1360.5   422.00      0.0     84.6      1.2      4.3      0.0     93.5       33    210.5    210.5       70     0.000     0.000     0.000     0.000      103        0        0        0       13       22       23    12.509       52     38.5    4.818   -9.900     1.59    0.000    0.000       27        8     2022  Maize_Short_Soroca_7May_Optimum_85_MOHC.PRM
  Tot(43)        7        5     2023    115.1    642.3   1429.4   425.00      0.0    115.0      0.1      0.0      0.0    125.7       38    206.9    206.9       73     0.000     0.000     0.000     0.000       97        0        0        0        8       20       21    11.814       49     33.4    3.950   -9.900     1.21    0.000    0.000       27        8     2023  Maize_Short_Soroca_7May_Optimum_85_MOHC.PRM
  Tot(44)        7        5     2024     64.0    619.7   1453.0   428.00      0.0     63.8      0.2      0.4      0.0     93.5       27    179.2    179.2       74     0.000     0.000     0.000     0.000       92        0        0        0        9       27       20    10.549       43     28.8    3.035   -9.900     1.13    0.000    0.000       27        8     2024  Maize_Short_Soroca_7May_Optimum_85_MOHC.PRM
  Tot(45)        7        5     2025    230.7    550.9   1376.1   431.00      0.0    218.0     12.7     13.6      0.0    136.1       67    267.2    265.7       78     0.000     0.000     0.000     0.000      107        0        0        0        7        9       13    17.389       73     36.5    6.353   -9.900     1.58    0.000    0.000       27        8     2025  Maize_Short_Soroca_7May_Optimum_85_MOHC.PRM
  Tot(46)        7        5     2026    126.1    645.3   1468.9   435.00      0.0    124.9      1.2      0.0      0.0    116.6       36    226.7    228.2       73     0.000     0.000     0.000     0.000       99        0        0        0        5       20       21    12.703       52     35.0    4.450   -9.900     1.33    0.000    0.000       27        8     2026  Maize_Short_Soroca_7May_Optimum_85_MOHC.PRM
  Tot(47)        7        5     2027    233.8    515.6   1379.8   438.00      0.0    228.9      4.9     13.7      0.0    128.9       64    292.4    291.1       91     0.000     0.000     0.000     0.000      107        0        0        0        6        5        7    20.846       87     40.1    8.355   -9.900     1.98    0.000    0.000       27        8     2027  Maize_Short_Soroca_7May_Optimum_85_MOHC.PRM
  Tot(48)        7        5     2028    133.3    627.7   1508.1   442.00      0.0    130.6      2.7      0.0      0.0    107.2       41    247.5    248.8       75     0.000     0.000     0.000     0.000      102        0        0        0        8        7       21    14.366       59     37.4    5.367   -9.900     1.52    0.000    0.000       27        8     2028  Maize_Short_Soroca_7May_Optimum_85_MOHC.PRM
  Tot(49)        7        5     2029    183.5    589.6   1475.4   445.00      0.0    178.9      4.6      8.2      0.0    147.7       59    244.6    244.6       77     0.000     0.000     0.000     0.000      105        0        0        0        4       12       20    15.426       63     39.5    6.086   -9.900     1.55    0.000    0.000       27        8     2029  Maize_Short_Soroca_7May_Optimum_85_MOHC.PRM
  Tot(50)        7        5     2030    285.0    535.5   1352.2   449.00      0.0    255.9     29.1     48.7      0.0    139.7       74    290.6    289.8       83     0.000     0.000     0.000     0.000      107        0        0        0       10        2       12    19.930       82     39.6    7.889   -9.900     1.83    0.000    0.000       27        8     2030  Maize_Short_Soroca_7May_Optimum_85_MOHC.PRM
  Tot(51)        7        5     2031    147.8    648.1   1530.7   452.00      0.0    145.0      2.8      0.0      0.0    125.8       42    239.1    239.2       70     0.000     0.000     0.000     0.000      107        0        0        0        5       28       21    13.426       54     39.9    5.358   -9.900     1.47    0.000    0.000       27        8     2031  Maize_Short_Soroca_7May_Optimum_85_MOHC.PRM
  Tot(52)        7        5     2032    199.5    541.2   1431.1   456.00      0.0    194.9      4.6      4.1      0.0    127.6       53    263.1    262.2       86     0.000     0.000     0.000     0.000      107        0        0        0        5       22        8    18.392       75     40.6    7.476   -9.900     1.91    0.000    0.000       27        8     2032  Maize_Short_Soroca_7May_Optimum_85_MOHC.PRM
  Tot(53)        7        5     2033    214.8    599.4   1501.5   460.00      0.0    208.3      6.5     12.8      0.0    157.7       62    262.1    262.9       75     0.000     0.000     0.000     0.000      107        0        0        0        5       24       18    15.883       65     40.0    6.350   -9.900     1.51    0.000    0.000       27        8     2033  Maize_Short_Soroca_7May_Optimum_85_MOHC.PRM
  Tot(54)        7        5     2034     92.6    726.1   1615.9   464.00      0.0     87.8      4.8     13.1      0.0    101.7       24    175.5    176.1       68     0.000     0.000     0.000     0.000       85        0        0        0        8       29       22     8.735       35      7.4    0.649   -9.900     0.24    0.000    0.000       27        8     2034  Maize_Short_Soroca_7May_Optimum_85_MOHC.PRM
  Tot(55)        7        5     2035     87.0    651.2   1439.5   468.00      0.0     86.1      0.9      0.4      0.0     94.7       29    197.2    197.2       71     0.000     0.000     0.000     0.000       92        0        0        0       11       21       21    11.157       45     28.6    3.191   -9.900     1.12    0.000    0.000       27        8     2035  Maize_Short_Soroca_7May_Optimum_85_MOHC.PRM
  Tot(56)        7        5     2036    177.2    640.0   1523.5   472.00      0.0    156.6     20.6     19.8      0.0    112.2       43    249.9    249.9       71     0.000     0.000     0.000     0.000      104        0        0        0        7       18       24    13.964       56     25.2    3.518   -9.900     0.97    0.000    0.000       27        8     2036  Maize_Short_Soroca_7May_Optimum_85_MOHC.PRM
  Tot(57)        7        5     2037    176.3    522.5   1273.2   476.00      0.0    160.2     16.1     33.9      0.0    121.1       59    227.2    226.9       75     0.000     0.000     0.000     0.000      107        0        0        0       15       12       19    15.544       64     39.6    6.154   -9.900     1.77    0.000    0.000       27        8     2037  Maize_Short_Soroca_7May_Optimum_85_MOHC.PRM
  Tot(58)        7        5     2038    311.2    522.3   1407.9   481.00      0.0    259.3     51.9     60.8      0.0    106.7       68    313.3    312.7       86     0.000     0.000     0.000     0.000      107        0        0        0       12        1       10    20.466       83     39.6    8.104   -9.900     1.93    0.000    0.000       27        8     2038  Maize_Short_Soroca_7May_Optimum_85_MOHC.PRM
  Tot(59)        7        5     2039    101.8    693.8   1580.6   485.00      0.0    101.6      0.2      0.0      0.0    132.5       33    174.3    175.2       72     0.000     0.000     0.000     0.000       88        0        0        0        9       27       21     9.729       39     24.6    2.396   -9.900     0.79    0.000    0.000       27        8     2039  Maize_Short_Soroca_7May_Optimum_85_MOHC.PRM
  Tot(60)        7        5     2040     57.8    752.5   1656.3   489.00      0.0     57.8      0.0      0.0      0.0     96.8       18    152.7    152.7       75     0.000     0.000     0.000     0.000       90        0        0        0        1       39       18     7.165       29     25.1    1.801   -9.900     0.73    0.000    0.000       27        8     2040  Maize_Short_Soroca_7May_Optimum_85_MOHC.PRM
  Tot(61)        7        5     2041     62.4    770.4   1643.0   494.00      0.0     62.4      0.0      0.0      0.0     97.6       21    172.0    172.0       67     0.000     0.000     0.000     0.000       89        0        0        0        5       31       22     9.103       36     25.4    2.316   -9.900     0.87    0.000    0.000       27        8     2041  Maize_Short_Soroca_7May_Optimum_85_MOHC.PRM
  Tot(62)        7        5     2042    209.2    633.2   1491.0   499.00      0.0    181.0     28.2     45.9      0.0    137.6       43    218.1    218.1       75     0.000     0.000     0.000     0.000       98        0        0        0        5       22       20    12.903       52     34.4    4.441   -9.900     1.26    0.000    0.000       27        8     2042  Maize_Short_Soroca_7May_Optimum_85_MOHC.PRM
  Tot(63)        7        5     2043     27.6    813.6   1668.9   504.00      0.0     27.6      0.0      0.0      0.0     62.7       10    146.1    146.1       74     0.000     0.000     0.000     0.000       84        0        0        0        7       39       19     6.587       26     21.0    1.384   -9.900     0.68    0.000    0.000       27        8     2043  Maize_Short_Soroca_7May_Optimum_85_MOHC.PRM
  Tot(64)        7        5     2044    127.6    630.7   1552.0   508.00      0.0    127.5      0.1      0.6      0.0    132.3       42    210.7    210.7       74     0.000     0.000     0.000     0.000       96        0        0        0        5       19       20    12.472       50     32.6    4.063   -9.900     1.19    0.000    0.000       27        8     2044  Maize_Short_Soroca_7May_Optimum_85_MOHC.PRM
  Tot(65)        7        5     2045    266.2    564.6   1395.7   513.00      0.0    243.3     22.9     46.0      0.0    129.3       62    247.1    246.5       75     0.000     0.000     0.000     0.000      107        0        0        0        7        6       16    15.999       65     39.0    6.233   -9.900     1.66    0.000    0.000       27        8     2045  Maize_Short_Soroca_7May_Optimum_85_MOHC.PRM
  Tot(66)        7        5     2046    142.4    654.0   1606.8   519.00      0.0    141.7      0.7      2.2      0.0    126.3       42    229.3    230.0       73     0.000     0.000     0.000     0.000       96        0        0        0        4       15       21    12.933       51     32.4    4.192   -9.900     1.20    0.000    0.000       27        8     2046  Maize_Short_Soroca_7May_Optimum_85_MOHC.PRM
  Tot(67)        7        5     2047    160.0    760.5   1743.1   524.00      0.0    147.2     12.8     24.4      0.0    140.3       28    165.7    165.7       71     0.000     0.000     0.000     0.000       83        0        0        0        2       34       21     7.858       31     12.2    0.959   -9.900     0.34    0.000    0.000       27        8     2047  Maize_Short_Soroca_7May_Optimum_85_MOHC.PRM
  Tot(68)        7        5     2048     77.7    627.2   1611.7   529.00      0.0     77.4      0.3      0.0      0.0    104.6       33    184.9    184.9       71     0.000     0.000     0.000     0.000       92        0        0        0        4       23       21    11.486       45     28.5    3.271   -9.900     1.16    0.000    0.000       27        8     2048  Maize_Short_Soroca_7May_Optimum_85_MOHC.PRM
  Tot(69)        7        5     2049     52.0    755.6   1609.1   535.00      0.0     52.0      0.0      0.0      0.0     79.9       18    173.8    173.8       65     0.000     0.000     0.000     0.000       88        0        0        0        4       27       22     9.061       36     17.9    1.624   -9.900     0.65    0.000    0.000       27        8     2049  Maize_Short_Soroca_7May_Optimum_85_MOHC.PRM
  Tot(70)        7        5     2050    126.3    686.2   1676.9   541.00      0.0    124.6      1.7      0.0      0.0    110.0       32    237.5    237.5       75     0.000     0.000     0.000     0.000      101        0        0        0        3       19       20    14.073       56     37.1    5.228   -9.900     1.51    0.000    0.000       27        8     2050  Maize_Short_Soroca_7May_Optimum_85_MOHC.PRM
  Tot(71)        7        5     2051    144.4    634.5   1487.3   546.00      0.0    138.8      5.6     14.7      0.0    106.9       42    237.7    237.7       71     0.000     0.000     0.000     0.000       98        0        0        0        8       10       21    13.590       54     19.9    2.701   -9.900     0.79    0.000    0.000       27        8     2051  Maize_Short_Soroca_7May_Optimum_85_MOHC.PRM
  Tot(72)        7        5     2052    125.5    650.0   1489.7   552.00      0.0    119.9      5.6      9.5      0.0    133.3       40    184.6    184.6       69     0.000     0.000     0.000     0.000       89        0        0        0        8       25       21    10.425       41     25.8    2.693   -9.900     0.87    0.000    0.000       27        8     2052  Maize_Short_Soroca_7May_Optimum_85_MOHC.PRM
  Tot(73)        7        5     2053    107.3    639.1   1588.6   558.00      0.0    107.3      0.0      0.0      0.0    105.5       36    224.8    224.8       72     0.000     0.000     0.000     0.000      100        0        0        0        3       15       21    14.061       56     35.8    5.035   -9.900     1.54    0.000    0.000       27        8     2053  Maize_Short_Soroca_7May_Optimum_85_MOHC.PRM
  Tot(74)        7        5     2054    166.9    639.7   1614.4   564.00      0.0    154.2     12.7     29.1      0.0    119.9       43    226.6    226.6       71     0.000     0.000     0.000     0.000       97        0        0        0        3       14       22    13.116       52     32.8    4.303   -9.900     1.25    0.000    0.000       27        8     2054  Maize_Short_Soroca_7May_Optimum_85_MOHC.PRM
  Tot(75)        7        5     2055     37.7    719.1   1664.8   571.00      0.0     37.7      0.0      0.0      0.0     71.5       16    165.5    165.5       70     0.000     0.000     0.000     0.000       86        0        0        0        4       31       21     8.589       34     22.7    1.949   -9.900     0.83    0.000    0.000       27        8     2055  Maize_Short_Soroca_7May_Optimum_85_MOHC.PRM
  Tot(76)        7        5     2056    118.5    597.0   1465.1   577.00      0.0    117.3      1.2      0.0      0.0    105.7       43    233.9    233.9       74     0.000     0.000     0.000     0.000      103        0        0        0        5        6       20    15.039       60     38.6    5.801   -9.900     1.71    0.000    0.000       27        8     2056  Maize_Short_Soroca_7May_Optimum_85_MOHC.PRM
  Tot(77)        7        5     2057    250.3    538.2   1464.9   583.00      0.0    234.4     15.9     34.3      0.0    136.8       75    284.0    283.2       83     0.000     0.000     0.000     0.000      107        0        0        0        6        1       12    19.935       81     39.5    7.879   -9.900     1.87    0.000    0.000       27        8     2057  Maize_Short_Soroca_7May_Optimum_85_MOHC.PRM
  Tot(78)        7        5     2058    128.7    754.9   1709.6   590.00      0.0    125.7      3.0      5.0      0.0    135.6       35    199.2    200.1       65     0.000     0.000     0.000     0.000       92        0        0        0        3       24       24    10.524       42     27.9    2.937   -9.900     0.88    0.000    0.000       27        8     2058  Maize_Short_Soroca_7May_Optimum_85_MOHC.PRM
  Tot(79)        7        5     2059    171.7    619.4   1564.5   597.00      0.0    171.2      0.5      0.0      0.0    139.4       54    248.8    248.3       73     0.000     0.000     0.000     0.000      107        0        0        0        4       17       18    16.178       64     39.5    6.384   -9.900     1.64    0.000    0.000       27        8     2059  Maize_Short_Soroca_7May_Optimum_85_MOHC.PRM
  Tot(80)        7        5     2060     90.0    796.1   1818.6   604.00      0.0     90.0      0.0      0.0      0.0    113.2       21    181.4    181.8       73     0.000     0.000     0.000     0.000       89        0        0        0        1       34       20     8.650       34     13.4    1.162   -9.900     0.40    0.000    0.000       27        8     2060  Maize_Short_Soroca_7May_Optimum_85_MOHC.PRM
  Tot(81)        7        5     2061     83.3    737.8   1638.9   611.00      0.0     72.2     11.1     18.1      0.0     87.3       21    172.5    172.5       67     0.000     0.000     0.000     0.000       87        0        0        0        8       29       22     9.215       36     23.3    2.150   -9.900     0.84    0.000    0.000       27        8     2061  Maize_Short_Soroca_7May_Optimum_85_MOHC.PRM
  Tot(82)        7        5     2062    114.2    766.7   1785.6   618.00      0.0    114.2      0.0      0.0      0.0    130.1       32    198.6    198.6       67     0.000     0.000     0.000     0.000       91        0        0        0        1       22       23    10.740       42     27.0    2.902   -9.900     0.91    0.000    0.000       27        8     2062  Maize_Short_Soroca_7May_Optimum_85_MOHC.PRM
  Tot(83)        7        5     2063    152.0    665.8   1715.7   625.00      0.0    142.0     10.0     19.1      0.0    116.1       40    230.5    230.5       71     0.000     0.000     0.000     0.000      100        0        0        0        2       12       22    14.075       56     35.5    4.993   -9.900     1.45    0.000    0.000       27        8     2063  Maize_Short_Soroca_7May_Optimum_85_MOHC.PRM
  Tot(84)        7        5     2064    104.0    660.9   1766.5   632.00      0.0    104.0      0.0      0.0      0.0     99.7       29    215.5    215.5       77     0.000     0.000     0.000     0.000       98        0        0        0        1       19       20    12.873       51     34.6    4.456   -9.900     1.45    0.000    0.000       27        8     2064  Maize_Short_Soroca_7May_Optimum_85_MOHC.PRM
  Tot(85)        7        5     2065     74.5    669.5   1709.3   639.00      0.0     74.5      0.0      0.0      0.0    100.3       25    182.7    182.7       77     0.000     0.000     0.000     0.000       95        0        0        0        1       32       18    10.890       43     32.3    3.518   -9.900     1.26    0.000    0.000       27        8     2065  Maize_Short_Soroca_7May_Optimum_85_MOHC.PRM
  Tot(86)        7        5     2066    143.0    676.0   1651.8   647.00      0.0    139.0      4.0      0.5      0.0    115.4       32    204.0    204.0       73     0.000     0.000     0.000     0.000      107        0        0        0        2       22       29    11.910       47     31.6    3.762   -9.900     1.18    0.000    0.000       27        8     2066  Maize_Short_Soroca_7May_Optimum_85_MOHC.PRM
  Tot(87)        7        5     2067    134.1    772.1   1830.9   654.00      0.0    129.2      4.9      0.0      0.0    124.9       29    222.1    222.1       72     0.000     0.000     0.000     0.000       96        0        0        0        0       21       21    11.731       46     32.2    3.774   -9.900     1.10    0.000    0.000       27        8     2067  Maize_Short_Soroca_7May_Optimum_85_MOHC.PRM
  Tot(88)        7        5     2068    188.3    588.8   1604.9   662.00      0.0    186.0      2.3      0.0      0.0    114.0       50    293.1    292.3       84     0.000     0.000     0.000     0.000      107        0        0        0        2        7       11    20.395       81     39.7    8.099   -9.900     1.99    0.000    0.000       27        8     2068  Maize_Short_Soroca_7May_Optimum_85_MOHC.PRM
  Tot(89)        7        5     2069    185.3    654.6   1725.4   669.00      0.0    171.1     14.2      7.2      0.0     82.5       33    303.1    303.5       80     0.000     0.000     0.000     0.000      107        0        0        0        1        3       14    18.901       75     39.1    7.387   -9.900     1.92    0.000    0.000       27        8     2069  Maize_Short_Soroca_7May_Optimum_85_MOHC.PRM
  Tot(90)        7        5     2070    150.3    674.6   1671.9   677.00      0.0    143.5      6.8     17.2      0.0     98.1       36    254.3    254.7       72     0.000     0.000     0.000     0.000      105        0        0        0        3        5       21    15.801       63     38.0    6.012   -9.900     1.71    0.000    0.000       27        8     2070  Maize_Short_Soroca_7May_Optimum_85_MOHC.PRM
  Tot(91)        7        5     2071    150.5    695.0   1691.2   685.00      0.0    143.5      7.0     16.9      0.0    117.8       38    228.6    228.6       72     0.000     0.000     0.000     0.000       96        0        0        0        5       15       22    12.903       51     10.5    1.359   -9.900     0.39    0.000    0.000       27        8     2071  Maize_Short_Soroca_7May_Optimum_85_MOHC.PRM
  Tot(92)        7        5     2072    172.4    683.9   1739.8   693.00      0.0    165.3      7.1      6.8      0.0    133.2       47    248.0    248.0       73     0.000     0.000     0.000     0.000      101        0        0        0        3        7       21    14.562       58     36.5    5.309   -9.900     1.40    0.000    0.000       27        8     2072  Maize_Short_Soroca_7May_Optimum_85_MOHC.PRM
  Tot(93)        7        5     2073    137.1    660.6   1644.2   701.00      0.0    131.5      5.6     10.1      0.0    113.8       37    230.2    230.2       75     0.000     0.000     0.000     0.000      102        0        0        0        3       16       21    14.429       57     38.0    5.484   -9.900     1.60    0.000    0.000       27        8     2073  Maize_Short_Soroca_7May_Optimum_85_MOHC.PRM
  Tot(94)        7        5     2074    141.9    721.7   1712.2   709.00      0.0    132.4      9.5      0.0      0.0    109.5       30    243.1    243.1       76     0.000     0.000     0.000     0.000      101        0        0        0        3       22       20    13.114       52     36.9    4.838   -9.900     1.38    0.000    0.000       27        8     2074  Maize_Short_Soroca_7May_Optimum_85_MOHC.PRM
  Tot(95)        7        5     2075     93.6    765.9   1830.6   717.00      0.0     93.4      0.2      0.3      0.0    118.0       24    181.8    181.8       74     0.000     0.000     0.000     0.000       92        0        0        0        2       33       20     9.542       38     23.0    2.191   -9.900     0.74    0.000    0.000       27        8     2075  Maize_Short_Soroca_7May_Optimum_85_MOHC.PRM
  Tot(96)        7        5     2076    104.5    703.3   1746.2   725.00      0.0    103.8      0.7      0.2      0.0    121.2       33    191.2    191.2       72     0.000     0.000     0.000     0.000       90        0        0        0        7       28       21    10.494       42     14.0    1.468   -9.900     0.47    0.000    0.000       27        8     2076  Maize_Short_Soroca_7May_Optimum_85_MOHC.PRM
  Tot(97)        7        5     2077    109.8    674.1   1672.6   733.00      0.0    108.2      1.6      0.0      0.0     77.4       23    212.5    212.5       72     0.000     0.000     0.000     0.000       98        0        0        0        1       16       21    12.821       51     34.1    4.368   -9.900     1.55    0.000    0.000       27        8     2077  Maize_Short_Soroca_7May_Optimum_85_MOHC.PRM
  Tot(98)        7        5     2078    137.0    617.0   1642.2   742.00      0.0    136.9      0.1      0.0      0.0    109.3       49    253.4    253.3       75     0.000     0.000     0.000     0.000      107        0        0        0        6       12       18    17.068       68     38.8    6.630   -9.900     1.83    0.000    0.000       27        8     2078  Maize_Short_Soroca_7May_Optimum_85_MOHC.PRM
  Tot(99)        7        5     2079    146.9    699.4   1763.0   750.00      0.0    141.3      5.6     10.0      0.0    146.6       42    187.8    188.0       68     0.000     0.000     0.000     0.000       88        0        0        0        3       23       22    10.135       41     22.8    2.315   -9.900     0.72    0.000    0.000       27        8     2079  Maize_Short_Soroca_7May_Optimum_85_MOHC.PRM
 Tot(100)        7        5     2080    177.7    742.5   1823.4   758.00      0.0    173.8      3.9      0.0      0.0    156.7       42    224.1    223.4       69     0.000     0.000     0.000     0.000      107        0        0        0        2       31       22    11.695       47      8.1    0.944   -9.900     0.25    0.000    0.000       27        8     2080  Maize_Short_Soroca_7May_Optimum_85_MOHC.PRM
 Tot(101)        7        5     2081    110.3    735.0   1864.5   767.00      0.0    105.0      5.3      0.0      0.0    109.2       29    217.8    218.4       70     0.000     0.000     0.000     0.000      100        0        0        0        0       18       21    12.984       52     35.8    4.648   -9.900     1.43    0.000    0.000       27        8     2081  Maize_Short_Soroca_7May_Optimum_85_MOHC.PRM
 Tot(102)        7        5     2082    126.7    757.4   1888.0   775.00      0.0    112.1     14.6     39.3      0.0     79.7       21    212.0    212.0       70     0.000     0.000     0.000     0.000       96        0        0        0        1       22       22    11.571       47     31.8    3.682   -9.900     1.27    0.000    0.000       27        8     2082  Maize_Short_Soroca_7May_Optimum_85_MOHC.PRM
 Tot(103)        7        5     2083    143.8    731.6   1754.1   784.00      0.0    132.9     10.9     17.5      0.0    134.8       38    196.3    196.3       68     0.000     0.000     0.000     0.000       93        0        0        0        5       18       22    11.577       47     29.1    3.374   -9.900     1.03    0.000    0.000       27        8     2083  Maize_Short_Soroca_7May_Optimum_85_MOHC.PRM
 Tot(104)        7        5     2084    192.0    628.3   1685.4   792.00      0.0    151.6     40.4     87.6      0.0     88.8       30    186.4    186.4       73     0.000     0.000     0.000     0.000       93        0        0        0        7       24       21    11.392       46     29.6    3.370   -9.900     1.24    0.000    0.000       27        8     2084  Maize_Short_Soroca_7May_Optimum_85_MOHC.PRM
 Tot(105)        7        5     2085    149.4    725.4   1853.8   801.00      0.0    136.3     13.1     24.6      0.0    137.3       34    178.9    178.9       72     0.000     0.000     0.000     0.000       90        0        0        0        1       29       20    10.064       41     26.9    2.705   -9.900     0.90    0.000    0.000       27        8     2085  Maize_Short_Soroca_7May_Optimum_85_MOHC.PRM
 Tot(106)        7        5     2086    102.2    712.1   1826.6   810.00      0.0    101.9      0.3      0.0      0.0    101.1       29    222.9    222.6       69     0.000     0.000     0.000     0.000      107        0        0        0        1       21       22    13.384       54     13.0    1.743   -9.900     0.54    0.000    0.000       27        8     2086  Maize_Short_Soroca_7May_Optimum_85_MOHC.PRM
 Tot(107)        7        5     2087     17.7    880.0   1953.4   818.00      0.0     17.7      0.0      0.0      0.0     62.8        9    145.4    145.7       77     0.000     0.000     0.000     0.000       90        0        0        0        0       41       17     6.577       27     17.9    1.177   -9.900     0.58    0.000    0.000       27        8     2087  Maize_Short_Soroca_7May_Optimum_85_MOHC.PRM
 Tot(108)        7        5     2088     52.8    855.5   1893.0   827.00      0.0     49.8      3.0      5.0      0.0     83.6       14    148.6    148.6       73     0.000     0.000     0.000     0.000       83        0        0        0        1       38       19     6.777       28     13.8    0.937   -9.900     0.41    0.000    0.000       27        8     2088  Maize_Short_Soroca_7May_Optimum_85_MOHC.PRM
 Tot(109)        7        5     2089     91.4    807.5   1878.0   836.00      0.0     90.7      0.7      1.9      0.0    112.4       23    175.1    175.1       69     0.000     0.000     0.000     0.000       87        0        0        0        2       30       21     8.931       36      0.2    0.021   -9.900     0.01    0.000    0.000       27        8     2089  Maize_Short_Soroca_7May_Optimum_85_MOHC.PRM
 Tot(110)        7        5     2090    225.9    741.8   1813.9   845.00      0.0    187.6     38.3     65.6      0.0    117.7       36    225.6    225.6       70     0.000     0.000     0.000     0.000       97        0        0        0        1       13       22    12.898       53     32.8    4.234   -9.900     1.24    0.000    0.000       27        8     2090  Maize_Short_Soroca_7May_Optimum_85_MOHC.PRM
 Tot(111)        7        5     2091     61.8    869.2   1918.8   854.00      0.0     61.8      0.0      0.0      0.0     96.8       17    156.3    156.3       70     0.000     0.000     0.000     0.000       82        0        0        0        1       36       21     7.040       29     11.5    0.810   -9.900     0.32    0.000    0.000       27        8     2091  Maize_Short_Soroca_7May_Optimum_85_MOHC.PRM
 Tot(112)        7        5     2092     34.8    871.3   1862.9   863.00      0.0     33.5      1.3      2.5      0.0     71.6       12    150.5    150.5       72     0.000     0.000     0.000     0.000       84        0        0        0        2       37       20     7.047       29     12.2    0.862   -9.900     0.40    0.000    0.000       27        8     2092  Maize_Short_Soroca_7May_Optimum_85_MOHC.PRM
 Tot(113)        7        5     2093    104.1    824.6   1910.9   872.00      0.0    102.0      2.1      0.0      0.0     99.7       22    221.0    221.0       72     0.000     0.000     0.000     0.000       98        0        0        0        1       26       21    11.406       47      5.9    0.669   -9.900     0.21    0.000    0.000       27        8     2093  Maize_Short_Soroca_7May_Optimum_85_MOHC.PRM
 Tot(114)        7        5     2094     66.7    798.6   1898.3   881.00      0.0     66.7      0.0      0.0      0.0    104.3       20    160.5    160.5       75     0.000     0.000     0.000     0.000       88        0        0        0        1       35       19     8.307       34     25.4    2.109   -9.900     0.80    0.000    0.000       27        8     2094  Maize_Short_Soroca_7May_Optimum_85_MOHC.PRM
 Tot(115)        7        5     2095     56.6    844.4   1898.6   890.00      0.0     56.5      0.1      0.0      0.0     90.4       17    161.4    161.4       69     0.000     0.000     0.000     0.000       85        0        0        0        1       33       21     7.735       32      5.7    0.439   -9.900     0.18    0.000    0.000       27        8     2095  Maize_Short_Soroca_7May_Optimum_85_MOHC.PRM
 Tot(116)        7        5     2096    222.6    696.8   1813.3   899.00      0.0    171.0     51.6     58.5      0.0    132.0       38    194.0    194.0       73     0.000     0.000     0.000     0.000       94        0        0        0        3       22       21    11.747       49     30.8    3.616   -9.900     1.12    0.000    0.000       27        8     2096  Maize_Short_Soroca_7May_Optimum_85_MOHC.PRM
 Tot(117)        7        5     2097     95.0    775.9   1859.0   908.00      0.0     92.8      2.2      2.5      0.0    124.1       24    158.7    158.7       73     0.000     0.000     0.000     0.000       87        0        0        0        1       36       20     7.768       32     24.0    1.862   -9.900     0.67    0.000    0.000       27        8     2097  Maize_Short_Soroca_7May_Optimum_85_MOHC.PRM
 Tot(118)        7        5     2098     91.8    767.5   1856.0   917.00      0.0     90.4      1.4      0.0      0.0    105.0       27    199.7    199.7       68     0.000     0.000     0.000     0.000       93        0        0        0        2       20       22    10.724       45     16.5    1.773   -9.900     0.59    0.000    0.000       27        8     2098  Maize_Short_Soroca_7May_Optimum_85_MOHC.PRM
 Tot(119)        7        5     2099    222.3    601.0   1707.1   927.00      0.0    192.6     29.7      2.0      0.0     96.3       44    305.4    304.1       90     0.000     0.000     0.000     0.000      107        0        0        0        2        9        6    20.762       87     40.1    8.325   -9.900     2.07    0.000    0.000       27        8     2099  Maize_Short_Soroca_7May_Optimum_85_MOHC.PRM
