AquaCrop 7.0 (August 2022) - Output created on (date) : 24-11-2022   at (time) : 10:13:53

    RunNr     Day1   Month1    Year1     Rain      ETo       GD     CO2      Irri   Infilt   Runoff    Drain   Upflow        E     E/Ex       Tr      TrW   Tr/Trx    SaltIn   SaltOut    SaltUp  SaltProf     Cycle   SaltStr  FertStr  WeedStr  TempStr   ExpStr   StoStr  BioMass  Brelative   HI    Y(dry)  Y(fresh)    WPet      Bin     Bout     DayN   MonthN    YearN
                                           mm       mm  degC.day    ppm        mm       mm       mm       mm       mm       mm        %       mm       mm        %    ton/ha    ton/ha    ton/ha    ton/ha      days       %        %        %        %        %        %    ton/ha        %       %    ton/ha   ton/ha    kg/m3   ton/ha   ton/ha
   Tot(1)        7        5     1981    150.4    483.8   1212.1   340.11      0.0    145.9      4.5     12.1      0.0     84.3       41    248.4    194.7       87     0.000     0.000     0.000     0.000      107        0       42       25       12        5        9    13.734       64     39.6    5.444   -9.900     1.64    0.000    0.000       27        8     1981  Maize_short_Chisinau_7May_NonOptimum_26_NCC.PRM
   Tot(2)        7        5     1982    192.0    471.0   1188.7   341.22      0.0    191.9      0.1      0.0      0.0     76.4       35    258.6    198.8      100     0.000     0.000     0.000     0.000      107        0       42       25       11        2        0    15.957       74     40.0    6.384   -9.900     1.91    0.000    0.000       27        8     1982  Maize_short_Chisinau_7May_NonOptimum_26_NCC.PRM
   Tot(3)        7        5     1983    269.2    465.2   1233.5   342.84      0.0    253.3     15.9     23.6      0.0     99.3       48    261.7    202.2      100     0.000     0.000     0.000     0.000      107        0       42       25        9        2        0    16.019       75     40.1    6.418   -9.900     1.78    0.000    0.000       27        8     1983  Maize_short_Chisinau_7May_NonOptimum_26_NCC.PRM
   Tot(4)        7        5     1984    239.1    438.2   1067.3   344.40      0.0    237.1      2.0      2.8      0.0    134.8       75    245.6    191.3      100     0.000     0.000     0.000     0.000      107        0       42       25       17        0        0    15.222       75     40.0    6.090   -9.900     1.60    0.000    0.000       27        8     1984  Maize_short_Chisinau_7May_NonOptimum_26_NCC.PRM
   Tot(5)        7        5     1985    292.8    461.8   1172.6   345.87      0.0    263.1     29.7     63.0      0.0    102.2       53    265.5    202.8      100     0.000     0.000     0.000     0.000      107        0       42       25       13        0        0    15.701       75     40.0    6.281   -9.900     1.71    0.000    0.000       27        8     1985  Maize_short_Chisinau_7May_NonOptimum_26_NCC.PRM
   Tot(6)        7        5     1986    172.4    527.7   1261.6   347.19      0.0    171.9      0.5      0.0      0.0     89.5       39    281.4    219.1       93     0.000     0.000     0.000     0.000      107        0       42       25        8        5        4    14.907       69     40.0    5.965   -9.900     1.61    0.000    0.000       27        8     1986  Maize_short_Chisinau_7May_NonOptimum_26_NCC.PRM
   Tot(7)        7        5     1987    259.6    481.6   1137.9   348.98      0.0    253.3      6.3      0.0      0.0    110.0       59    294.0    227.1      100     0.000     0.000     0.000     0.000      107        0       42       25       15        3        0    15.808       75     40.2    6.348   -9.900     1.57    0.000    0.000       27        8     1987  Maize_short_Chisinau_7May_NonOptimum_26_NCC.PRM
   Tot(8)        7        5     1988    236.3    471.5   1252.6   351.45      0.0    227.3      9.0     15.1      0.0    121.2       71    286.2    223.5       93     0.000     0.000     0.000     0.000      107        0       42       25        9        3        5    15.514       70     39.9    6.196   -9.900     1.52    0.000    0.000       27        8     1988  Maize_short_Chisinau_7May_NonOptimum_26_NCC.PRM
   Tot(9)        7        5     1989    210.4    486.7   1164.0   352.89      0.0    207.5      2.9      2.5      0.0     95.5       49    291.8    224.6       99     0.000     0.000     0.000     0.000      107        0       42       25       14        3        1    16.171       74     40.2    6.499   -9.900     1.68    0.000    0.000       27        8     1989  Maize_short_Chisinau_7May_NonOptimum_26_NCC.PRM
  Tot(10)        7        5     1990    161.6    507.1   1149.5   354.16      0.0    158.4      3.2      2.2      0.0    115.0       55    257.2    200.1       86     0.000     0.000     0.000     0.000      107        0       42       25       16        5       11    13.812       62     39.9    5.514   -9.900     1.48    0.000    0.000       27        8     1990  Maize_short_Chisinau_7May_NonOptimum_26_NCC.PRM
  Tot(11)        7        5     1991    438.7    420.7   1183.0   355.48      0.0    393.0     45.7     66.9      0.0    123.6       82    281.3    217.0      100     0.000     0.000     0.000     0.000      107        0       42       25       17        0        0    17.231       75     40.0    6.894   -9.900     1.70    0.000    0.000       27        8     1991  Maize_short_Chisinau_7May_NonOptimum_26_NCC.PRM
  Tot(12)        7        5     1992    191.1    523.2   1230.9   356.27      0.0    188.5      2.6      5.7      0.0    128.5       66    273.6    212.5       83     0.000     0.000     0.000     0.000      107        0       42       25       16        4       13    13.651       60     39.5    5.391   -9.900     1.34    0.000    0.000       27        8     1992  Maize_short_Chisinau_7May_NonOptimum_26_NCC.PRM
  Tot(13)        7        5     1993    202.8    503.8   1154.4   356.95      0.0    196.6      6.2     19.9      0.0    106.9       53    274.0    212.1       93     0.000     0.000     0.000     0.000      107        0       42       25       13        3        5    14.548       70     39.9    5.807   -9.900     1.52    0.000    0.000       27        8     1993  Maize_short_Chisinau_7May_NonOptimum_26_NCC.PRM
  Tot(14)        7        5     1994    258.9    536.5   1263.4   358.63      0.0    219.5     39.4      7.8      0.0    105.8       45    256.5    201.0       84     0.000     0.000     0.000     0.000      107        0       42       25       10       11       11    12.833       57     39.7    5.096   -9.900     1.41    0.000    0.000       27        8     1994  Maize_short_Chisinau_7May_NonOptimum_26_NCC.PRM
  Tot(15)        7        5     1995    186.0    502.8   1281.6   360.62      0.0    184.0      2.0      2.1      0.0     91.1       44    283.7    219.6       91     0.000     0.000     0.000     0.000      107        0       42       25        8        6        6    15.609       68     40.1    6.258   -9.900     1.67    0.000    0.000       27        8     1995  Maize_short_Chisinau_7May_NonOptimum_26_NCC.PRM
  Tot(16)        7        5     1996    148.0    541.5   1272.6   362.37      0.0    147.1      0.9      0.0      0.0    101.4       38    231.0    181.7       85     0.000     0.000     0.000     0.000      107        0       42       25       10       18       10    12.116       55     40.5    4.906   -9.900     1.48    0.000    0.000       27        8     1996  Maize_short_Chisinau_7May_NonOptimum_26_NCC.PRM
  Tot(17)        7        5     1997    305.0    448.8   1194.3   363.47      0.0    288.7     16.3      0.0      0.0     83.2       41    258.3    200.5      100     0.000     0.000     0.000     0.000      107        0       42       25       12        3        0    16.781       75     40.0    6.718   -9.900     1.97    0.000    0.000       27        8     1997  Maize_short_Chisinau_7May_NonOptimum_26_NCC.PRM
  Tot(18)        7        5     1998    210.4    488.7   1249.2   366.50      0.0    205.7      4.7     10.9      0.0    111.7       61    290.0    223.4       94     0.000     0.000     0.000     0.000      107        0       42       25       14        1        5    15.740       71     39.9    6.287   -9.900     1.57    0.000    0.000       27        8     1998  Maize_short_Chisinau_7May_NonOptimum_26_NCC.PRM
  Tot(19)        7        5     1999    158.4    516.7   1334.1   368.14      0.0    157.0      1.4      0.0      0.0    100.6       45    268.0    209.4       87     0.000     0.000     0.000     0.000      107        0       42       25        8        7       10    14.361       61     40.1    5.758   -9.900     1.56    0.000    0.000       27        8     1999  Maize_short_Chisinau_7May_NonOptimum_26_NCC.PRM
  Tot(20)        7        5     2000    167.4    572.2   1257.5   369.41      0.0    163.5      3.9      0.0      0.0     68.3       25    276.6    216.9       91     0.000     0.000     0.000     0.000      107        0       42       25       11       15        6    14.018       64     40.2    5.631   -9.900     1.63    0.000    0.000       27        8     2000  Maize_short_Chisinau_7May_NonOptimum_26_NCC.PRM
  Tot(21)        7        5     2001    210.4    518.6   1269.3   371.07      0.0    189.0     21.4     20.8      0.0    114.9       57    275.9    213.2       85     0.000     0.000     0.000     0.000      107        0       42       25       13        2       12    14.489       63     39.6    5.734   -9.900     1.47    0.000    0.000       27        8     2001  Maize_short_Chisinau_7May_NonOptimum_26_NCC.PRM
  Tot(22)        7        5     2002    285.3    517.8   1347.8   373.16      0.0    259.1     26.2      0.0      0.0    101.6       45    297.0    230.4       96     0.000     0.000     0.000     0.000      107        0       42       25        7       18        2    16.142       69     40.9    6.603   -9.900     1.66    0.000    0.000       27        8     2002  Maize_short_Chisinau_7May_NonOptimum_26_NCC.PRM
  Tot(23)        7        5     2003    186.5    574.0   1346.0   375.80      0.0    185.1      1.4      0.0      0.0     79.3       27    298.2    233.0       98     0.000     0.000     0.000     0.000      107        0       42       25        6       10        1    16.111       70     40.1    6.458   -9.900     1.71    0.000    0.000       27        8     2003  Maize_short_Chisinau_7May_NonOptimum_26_NCC.PRM
  Tot(24)        7        5     2004    218.3    504.4   1151.0   377.49      0.0    209.4      8.9      0.0      0.0    107.5       51    288.6    225.0       96     0.000     0.000     0.000     0.000      107        0       42       25       16       11        3    15.863       70     40.3    6.397   -9.900     1.62    0.000    0.000       27        8     2004  Maize_short_Chisinau_7May_NonOptimum_26_NCC.PRM
  Tot(25)        7        5     2005    328.8    485.2   1234.8   379.80      0.0    312.1     16.7     20.4      0.0    126.4       64    298.8    230.9      100     0.000     0.000     0.000     0.000      107        0       42       25       10        1        0    17.366       75     40.1    6.959   -9.900     1.64    0.000    0.000       27        8     2005  Maize_short_Chisinau_7May_NonOptimum_26_NCC.PRM
  Tot(26)        7        5     2006    272.0    533.8   1259.8   381.90      0.0    265.7      6.3      5.5      0.0    142.1       70    318.0    246.4       94     0.000     0.000     0.000     0.000      107        0       42       25       10        4        5    16.158       70     40.2    6.498   -9.900     1.41    0.000    0.000       27        8     2006  Maize_short_Chisinau_7May_NonOptimum_26_NCC.PRM
  Tot(27)        7        5     2007    144.6    648.6   1473.6   383.77      0.0    144.1      0.5      0.0      0.0    103.1       31    250.0    199.0       78     0.000     0.000     0.000     0.000      107        0       42       25        2       20       16    11.151       47     40.1    4.473   -9.900     1.27    0.000    0.000       27        8     2007  Maize_short_Chisinau_7May_NonOptimum_26_NCC.PRM
  Tot(28)        7        5     2008    177.3    560.5   1291.6   385.59      0.0    172.8      4.5      0.0      0.0     88.5       38    300.9    233.9       88     0.000     0.000     0.000     0.000      107        0       42       25        6       10        9    15.116       64     40.2    6.082   -9.900     1.56    0.000    0.000       27        8     2008  Maize_short_Chisinau_7May_NonOptimum_26_NCC.PRM
  Tot(29)        7        5     2009    161.5    583.3   1333.2   387.37      0.0    160.0      1.5      0.0      0.0     86.6       33    293.0    228.8       86     0.000     0.000     0.000     0.000      107        0       42       25        6       10       11    14.287       61     39.9    5.698   -9.900     1.50    0.000    0.000       27        8     2009  Maize_short_Chisinau_7May_NonOptimum_26_NCC.PRM
  Tot(30)        7        5     2010    248.4    518.6   1414.0   389.85      0.0    235.0     13.4      0.2      0.0    121.5       59    315.2    243.3       96     0.000     0.000     0.000     0.000      107        0       42       25        7        1        3    16.950       72     40.0    6.776   -9.900     1.55    0.000    0.000       27        8     2010  Maize_short_Chisinau_7May_NonOptimum_26_NCC.PRM
  Tot(31)        7        5     2011    234.3    546.6   1320.9   391.63      0.0    220.0     14.3      7.4      0.0    112.6       48    306.3    237.6       95     0.000     0.000     0.000     0.000      107        0       42       25        6        2        4    16.151       71     40.0    6.458   -9.900     1.54    0.000    0.000       27        8     2011  Maize_short_Chisinau_7May_NonOptimum_26_NCC.PRM
  Tot(32)        7        5     2012    192.6    618.6   1442.0   393.82      0.0    189.8      2.8      1.7      0.0    129.4       45    271.7    214.9       80     0.000     0.000     0.000     0.000      107        0       42       25        6       19       15    12.345       52     40.0    4.941   -9.900     1.23    0.000    0.000       27        8     2012  Maize_short_Chisinau_7May_NonOptimum_26_NCC.PRM
  Tot(33)        7        5     2013    286.6    541.7   1380.1   396.48      0.0    259.3     27.3      1.1      0.0    118.5       54    322.6    250.5       94     0.000     0.000     0.000     0.000      107        0       42       25        4        2        4    16.955       71     39.9    6.770   -9.900     1.53    0.000    0.000       27        8     2013  Maize_short_Chisinau_7May_NonOptimum_26_NCC.PRM
  Tot(34)        7        5     2014    244.6    539.8   1326.2   398.55      0.0    239.3      5.3      8.4      0.0    121.7       59    306.3    236.1       90     0.000     0.000     0.000     0.000      107        0       42       25        7        6        8    15.565       66     40.0    6.224   -9.900     1.45    0.000    0.000       27        8     2014  Maize_short_Chisinau_7May_NonOptimum_26_NCC.PRM
  Tot(35)        7        5     2015    123.0    600.5   1355.8   401.00      0.0    122.8      0.2      0.3      0.0     77.9       29    262.6    207.0       79     0.000     0.000     0.000     0.000      107        0       42       25        6       10       16    12.611       54     39.5    4.978   -9.900     1.46    0.000    0.000       27        8     2015  Maize_short_Chisinau_7May_NonOptimum_26_NCC.PRM
  Tot(36)        7        5     2016    255.7    540.8   1325.7   403.00      0.0    238.9     16.8     33.2      0.0    141.5       73    285.1    221.1       81     0.000     0.000     0.000     0.000      107        0       42       25       10        5       15    13.866       58     39.7    5.504   -9.900     1.29    0.000    0.000       27        8     2016  Maize_short_Chisinau_7May_NonOptimum_26_NCC.PRM
  Tot(37)        7        5     2017    299.1    552.7   1316.4   405.00      0.0    280.2     18.9     14.6      0.0    112.9       53    345.6    266.1       98     0.000     0.000     0.000     0.000      107        0       42       25        9        2        1    17.456       74     40.1    6.994   -9.900     1.53    0.000    0.000       27        8     2017  Maize_short_Chisinau_7May_NonOptimum_26_NCC.PRM
  Tot(38)        7        5     2018    279.9    546.1   1430.7   408.00      0.0    265.8     14.1      6.4      0.0    100.9       42    319.5    247.2      100     0.000     0.000     0.000     0.000      107        0       42       25        5        2        0    17.624       74     40.0    7.050   -9.900     1.68    0.000    0.000       27        8     2018  Maize_short_Chisinau_7May_NonOptimum_26_NCC.PRM
  Tot(39)        7        5     2019    233.9    552.0   1390.8   410.00      0.0    225.8      8.1     15.5      0.0    132.2       61    296.4    233.0       87     0.000     0.000     0.000     0.000      107        0       42       25        3        9       10    15.153       63     40.1    6.084   -9.900     1.42    0.000    0.000       27        8     2019  Maize_short_Chisinau_7May_NonOptimum_26_NCC.PRM
  Tot(40)        7        5     2020    168.3    521.6   1195.5   412.00      0.0    167.4      0.9      0.4      0.0    123.1       56    252.3    195.6       85     0.000     0.000     0.000     0.000      107        0       42       25       12        9       11    13.899       61     40.0    5.561   -9.900     1.48    0.000    0.000       27        8     2020  Maize_short_Chisinau_7May_NonOptimum_26_NCC.PRM
  Tot(41)        7        5     2021    151.4    523.9   1141.2   414.00      0.0    145.8      5.6      9.0      0.0    105.2       58    256.2    199.5       80     0.000     0.000     0.000     0.000      107        0       42       25       19        3       14    12.984       59     39.3    5.106   -9.900     1.41    0.000    0.000       27        8     2021  Maize_short_Chisinau_7May_NonOptimum_26_NCC.PRM
  Tot(42)        7        5     2022    168.3    615.5   1439.1   417.00      0.0    160.3      8.0     16.0      0.0    145.1       47    208.0    164.9       74     0.000     0.000     0.000     0.000       93        0       42       25        7       22       20     9.047       37     29.9    2.705   -9.900     0.80    0.000    0.000       27        8     2022  Maize_short_Chisinau_7May_NonOptimum_26_NCC.PRM
  Tot(43)        7        5     2023    136.3    515.0   1185.9   419.00      0.0    134.3      2.0      9.4      0.0    110.5       59    240.8    187.9       76     0.000     0.000     0.000     0.000      107        0       42       25       15       12       19    12.613       53     39.5    4.986   -9.900     1.42    0.000    0.000       27        8     2023  Maize_short_Chisinau_7May_NonOptimum_26_NCC.PRM
  Tot(44)        7        5     2024    147.5    539.5   1150.7   421.00      0.0    141.2      6.3     13.2      0.0    112.1       59    242.4    187.6       74     0.000     0.000     0.000     0.000      107        0       42       25       18        5       18    11.889       53     39.1    4.649   -9.900     1.31    0.000    0.000       27        8     2024  Maize_short_Chisinau_7May_NonOptimum_26_NCC.PRM
  Tot(45)        7        5     2025    186.0    506.7   1153.5   423.00      0.0    176.4      9.6     29.8      0.0     99.9       61    270.5    208.3       82     0.000     0.000     0.000     0.000      107        0       42       25       15        2       13    13.823       61     39.4    5.443   -9.900     1.47    0.000    0.000       27        8     2025  Maize_short_Chisinau_7May_NonOptimum_26_NCC.PRM
  Tot(46)        7        5     2026    254.5    503.9   1095.2   424.00      0.0    238.8     15.7     34.9      0.0    120.7       68    291.2    224.6       92     0.000     0.000     0.000     0.000      107        0       42       25       18        0        5    15.721       70     39.9    6.271   -9.900     1.52    0.000    0.000       27        8     2026  Maize_short_Chisinau_7May_NonOptimum_26_NCC.PRM
  Tot(47)        7        5     2027    167.3    625.7   1445.0   426.00      0.0    167.0      0.3      0.0      0.0    141.0       51    248.7    195.8       75     0.000     0.000     0.000     0.000      105        0       42       25        3       15       22    11.196       46     39.1    4.373   -9.900     1.12    0.000    0.000       27        8     2027  Maize_short_Chisinau_7May_NonOptimum_26_NCC.PRM
  Tot(48)        7        5     2028    110.4    556.4   1255.4   428.00      0.0    108.2      2.2      4.3      0.0     96.3       40    224.3    176.1       77     0.000     0.000     0.000     0.000      103        0       42       25       15       18       19    11.034       46     39.8    4.394   -9.900     1.37    0.000    0.000       27        8     2028  Maize_short_Chisinau_7May_NonOptimum_26_NCC.PRM
  Tot(49)        7        5     2029    186.3    440.7    965.4   429.00      0.0    182.3      4.0     19.3      0.0    108.1       69    255.1    195.4       96     0.000     0.000     0.000     0.000      107        0       42       25       25        1        3    15.456       73     40.0    6.187   -9.900     1.70    0.000    0.000       27        8     2029  Maize_short_Chisinau_7May_NonOptimum_26_NCC.PRM
  Tot(50)        7        5     2030    113.0    611.7   1300.9   431.00      0.0    110.4      2.6     10.9      0.0    108.1       35    208.2    165.8       75     0.000     0.000     0.000     0.000       98        0       42       25       14       21       20     9.683       40     34.5    3.342   -9.900     1.06    0.000    0.000       27        8     2030  Maize_short_Chisinau_7May_NonOptimum_26_NCC.PRM
  Tot(51)        7        5     2031     46.8    600.3   1350.8   432.00      0.0     46.8      0.0      0.0      0.0     71.4       22    187.4    148.4       74     0.000     0.000     0.000     0.000       94        0       42       25       12       25       20     8.884       37     30.8    2.734   -9.900     1.06    0.000    0.000       27        8     2031  Maize_short_Chisinau_7May_NonOptimum_26_NCC.PRM
  Tot(52)        7        5     2032    152.9    514.5   1247.2   433.00      0.0    149.5      3.4     15.0      0.0     99.0       54    260.1    201.4       81     0.000     0.000     0.000     0.000      107        0       42       25       11        4       14    14.015       59     39.3    5.514   -9.900     1.54    0.000    0.000       27        8     2032  Maize_short_Chisinau_7May_NonOptimum_26_NCC.PRM
  Tot(53)        7        5     2033    139.4    540.5   1210.1   435.00      0.0    139.3      0.1      0.0      0.0    107.1       53    250.7    195.6       78     0.000     0.000     0.000     0.000      107        0       42       25       17        7       18    12.522       53     39.2    4.904   -9.900     1.37    0.000    0.000       27        8     2033  Maize_short_Chisinau_7May_NonOptimum_26_NCC.PRM
  Tot(54)        7        5     2034    240.3    505.1   1128.1   436.00      0.0    219.6     20.7     43.3      0.0    135.0       79    261.2    201.4       83     0.000     0.000     0.000     0.000      107        0       42       25       18        2       13    13.305       60     39.4    5.245   -9.900     1.32    0.000    0.000       27        8     2034  Maize_short_Chisinau_7May_NonOptimum_26_NCC.PRM
  Tot(55)        7        5     2035     60.0    570.4   1253.6   437.00      0.0     59.8      0.2      2.3      0.0     66.2       26    214.6    168.8       73     0.000     0.000     0.000     0.000      105        0       42       25       11       16       22    10.665       45     39.0    4.158   -9.900     1.49    0.000    0.000       27        8     2035  Maize_short_Chisinau_7May_NonOptimum_26_NCC.PRM
  Tot(56)        7        5     2036    207.1    457.1   1062.8   438.00      0.0    193.0     14.1     30.7      0.0    103.4       66    267.0    205.2       94     0.000     0.000     0.000     0.000      107        0       42       25       20        1        5    15.691       71     39.9    6.267   -9.900     1.69    0.000    0.000       27        8     2036  Maize_short_Chisinau_7May_NonOptimum_26_NCC.PRM
  Tot(57)        7        5     2037    117.1    546.0   1298.8   438.00      0.0    117.1      0.0      0.0      0.0     79.2       36    260.8    203.6       80     0.000     0.000     0.000     0.000      107        0       42       25        9        7       15    13.639       57     39.4    5.377   -9.900     1.58    0.000    0.000       27        8     2037  Maize_short_Chisinau_7May_NonOptimum_26_NCC.PRM
  Tot(58)        7        5     2038    140.3    617.2   1433.2   439.00      0.0    139.8      0.5      1.9      0.0    123.4       41    233.2    183.6       77     0.000     0.000     0.000     0.000      101        0       42       25        5       13       20    11.055       45     37.4    4.130   -9.900     1.16    0.000    0.000       27        8     2038  Maize_short_Chisinau_7May_NonOptimum_26_NCC.PRM
  Tot(59)        7        5     2039    144.1    517.6   1148.7   440.00      0.0    140.6      3.5      6.7      0.0    104.6       47    232.4    182.4       82     0.000     0.000     0.000     0.000      107        0       42       25       15       11       12    12.533       56     39.9    5.004   -9.900     1.48    0.000    0.000       27        8     2039  Maize_short_Chisinau_7May_NonOptimum_26_NCC.PRM
  Tot(60)        7        5     2040    187.2    596.9   1322.9   440.00      0.0    175.9     11.3     27.6      0.0    117.3       51    259.0    201.2       76     0.000     0.000     0.000     0.000      107        0       42       25       10        4       18    12.510       54     38.5    4.812   -9.900     1.28    0.000    0.000       27        8     2040  Maize_short_Chisinau_7May_NonOptimum_26_NCC.PRM
  Tot(61)        7        5     2041    246.0    470.5   1157.1   441.00      0.0    239.0      7.0      9.6      0.0    129.5       78    294.6    225.9       98     0.000     0.000     0.000     0.000      107        0       42       25       14        3        2    16.857       74     40.2    6.778   -9.900     1.60    0.000    0.000       27        8     2041  Maize_short_Chisinau_7May_NonOptimum_26_NCC.PRM
  Tot(62)        7        5     2042    162.0    557.1   1294.2   441.00      0.0    155.6      6.4     20.2      0.0    125.2       55    231.9    182.9       75     0.000     0.000     0.000     0.000      103        0       42       25       10       12       21    11.221       47     39.0    4.374   -9.900     1.23    0.000    0.000       27        8     2042  Maize_short_Chisinau_7May_NonOptimum_26_NCC.PRM
  Tot(63)        7        5     2043    192.5    471.0   1083.2   441.00      0.0    177.4     15.1     32.8      0.0    111.8       72    254.7    196.4       84     0.000     0.000     0.000     0.000      107        0       42       25       20        3       12    14.063       62     39.7    5.578   -9.900     1.52    0.000    0.000       27        8     2043  Maize_short_Chisinau_7May_NonOptimum_26_NCC.PRM
  Tot(64)        7        5     2044    174.8    534.3   1206.4   442.00      0.0    171.9      2.9      3.3      0.0    116.9       62    275.4    213.6       82     0.000     0.000     0.000     0.000      107        0       42       25       14        1       13    13.732       59     39.3    5.395   -9.900     1.38    0.000    0.000       27        8     2044  Maize_short_Chisinau_7May_NonOptimum_26_NCC.PRM
  Tot(65)        7        5     2045    102.0    559.7   1234.6   442.00      0.0    102.0      0.0      0.0      0.0    104.4       45    221.6    173.2       73     0.000     0.000     0.000     0.000      106        0       42       25        9       10       22    11.196       48     38.8    4.345   -9.900     1.33    0.000    0.000       27        8     2045  Maize_short_Chisinau_7May_NonOptimum_26_NCC.PRM
  Tot(66)        7        5     2046    200.9    583.6   1398.4   442.00      0.0    191.1      9.8     22.8      0.0    156.7       62    233.5    182.4       77     0.000     0.000     0.000     0.000      103        0       42       25        6        8       20    11.681       48     38.8    4.532   -9.900     1.16    0.000    0.000       27        8     2046  Maize_short_Chisinau_7May_NonOptimum_26_NCC.PRM
  Tot(67)        7        5     2047    181.2    463.8   1068.7   442.00      0.0    174.5      6.7     13.6      0.0    111.9       70    265.3    204.5       89     0.000     0.000     0.000     0.000      107        0       42       25       20        3        7    15.743       68     40.0    6.296   -9.900     1.67    0.000    0.000       27        8     2047  Maize_short_Chisinau_7May_NonOptimum_26_NCC.PRM
  Tot(68)        7        5     2048    176.3    511.2   1164.9   442.00      0.0    170.6      5.7     20.8      0.0    122.0       59    236.9    185.6       80     0.000     0.000     0.000     0.000      107        0       42       25       16       12       12    12.184       54     39.9    4.858   -9.900     1.35    0.000    0.000       27        8     2048  Maize_short_Chisinau_7May_NonOptimum_26_NCC.PRM
  Tot(69)        7        5     2049    129.6    559.9   1288.4   443.00      0.0    129.6      0.0      0.0      0.0    121.4       47    222.3    175.3       78     0.000     0.000     0.000     0.000      105        0       42       25       11       19       20    10.841       45     40.0    4.339   -9.900     1.26    0.000    0.000       27        8     2049  Maize_short_Chisinau_7May_NonOptimum_26_NCC.PRM
  Tot(70)        7        5     2050     75.3    588.4   1227.7   443.00      0.0     75.1      0.2      0.7      0.0     93.5       32    192.5    152.0       74     0.000     0.000     0.000     0.000       95        0       42       25       20       21       20     9.221       38     31.7    2.922   -9.900     1.03    0.000    0.000       27        8     2050  Maize_short_Chisinau_7May_NonOptimum_26_NCC.PRM
  Tot(71)        7        5     2051    162.8    500.7   1211.6   443.00      0.0    162.0      0.8      0.9      0.0    111.8       62    264.6    205.1       84     0.000     0.000     0.000     0.000      107        0       42       25       15        3       12    14.280       61     39.5    5.639   -9.900     1.50    0.000    0.000       27        8     2051  Maize_short_Chisinau_7May_NonOptimum_26_NCC.PRM
  Tot(72)        7        5     2052    234.6    448.0   1038.4   443.00      0.0    212.0     22.6     23.2      0.0    112.8       65    264.6    204.6       99     0.000     0.000     0.000     0.000      107        0       42       25       24        3        1    16.129       74     40.2    6.479   -9.900     1.72    0.000    0.000       27        8     2052  Maize_short_Chisinau_7May_NonOptimum_26_NCC.PRM
  Tot(73)        7        5     2053    247.4    496.4   1266.4   443.00      0.0    234.7     12.7     36.5      0.0    134.2       79    282.9    218.4       87     0.000     0.000     0.000     0.000      107        0       42       25        8        2        9    15.837       66     39.8    6.307   -9.900     1.51    0.000    0.000       27        8     2053  Maize_short_Chisinau_7May_NonOptimum_26_NCC.PRM
  Tot(74)        7        5     2054    117.2    648.1   1365.3   443.00      0.0    113.6      3.6      9.4      0.0    112.4       32    204.2    162.5       74     0.000     0.000     0.000     0.000       94        0       42       25        7       23       20     9.079       37     31.0    2.811   -9.900     0.89    0.000    0.000       27        8     2054  Maize_short_Chisinau_7May_NonOptimum_26_NCC.PRM
  Tot(75)        7        5     2055    199.9    554.1   1282.2   443.00      0.0    176.3     23.6     50.3      0.0    108.0       49    239.8    186.7       78     0.000     0.000     0.000     0.000      106        0       42       25        9        6       20    11.881       50     38.9    4.620   -9.900     1.33    0.000    0.000       27        8     2055  Maize_short_Chisinau_7May_NonOptimum_26_NCC.PRM
  Tot(76)        7        5     2056    205.4    566.3   1274.4   442.00      0.0    197.4      8.0      0.0      0.0    101.4       49    315.1    243.3       87     0.000     0.000     0.000     0.000      107        0       42       25       10        3       11    15.335       64     39.6    6.074   -9.900     1.46    0.000    0.000       27        8     2056  Maize_short_Chisinau_7May_NonOptimum_26_NCC.PRM
  Tot(77)        7        5     2057    271.7    509.4   1252.6   442.00      0.0    264.4      7.3     12.2      0.0    138.3       78    321.7    248.1       95     0.000     0.000     0.000     0.000      107        0       42       25       11        2        4    17.197       71     39.9    6.869   -9.900     1.49    0.000    0.000       27        8     2057  Maize_short_Chisinau_7May_NonOptimum_26_NCC.PRM
  Tot(78)        7        5     2058    178.6    563.8   1311.6   442.00      0.0    171.5      7.1     10.9      0.0    128.7       54    247.9    196.0       78     0.000     0.000     0.000     0.000      107        0       42       25       10       19       17    12.325       52     40.2    4.957   -9.900     1.32    0.000    0.000       27        8     2058  Maize_short_Chisinau_7May_NonOptimum_26_NCC.PRM
  Tot(79)        7        5     2059    164.8    557.6   1310.6   442.00      0.0    162.1      2.7      1.4      0.0    137.9       57    240.3    188.3       81     0.000     0.000     0.000     0.000      107        0       42       25        9        9       17    11.819       53     39.7    4.688   -9.900     1.24    0.000    0.000       27        8     2059  Maize_short_Chisinau_7May_NonOptimum_26_NCC.PRM
  Tot(80)        7        5     2060    120.4    528.4   1243.7   442.00      0.0    120.2      0.2      0.0      0.0    109.3       54    232.3    181.0       78     0.000     0.000     0.000     0.000      107        0       42       25       13        8       19    12.037       51     39.2    4.724   -9.900     1.38    0.000    0.000       27        8     2060  Maize_short_Chisinau_7May_NonOptimum_26_NCC.PRM
  Tot(81)        7        5     2061    222.8    550.2   1215.4   441.00      0.0    209.3     13.5      8.4      0.0    131.8       67    292.6    226.0       84     0.000     0.000     0.000     0.000      107        0       42       25       12        1       12    14.832       62     39.4    5.848   -9.900     1.38    0.000    0.000       27        8     2061  Maize_short_Chisinau_7May_NonOptimum_26_NCC.PRM
  Tot(82)        7        5     2062     87.2    593.1   1303.7   441.00      0.0     87.2      0.0      0.0      0.0     95.6       30    202.9    160.8       78     0.000     0.000     0.000     0.000       99        0       42       25        6       21       19     9.647       40     36.1    3.478   -9.900     1.17    0.000    0.000       27        8     2062  Maize_short_Chisinau_7May_NonOptimum_26_NCC.PRM
  Tot(83)        7        5     2063    114.9    572.1   1194.9   441.00      0.0    113.8      1.1      0.0      0.0     91.8       42    246.1    190.9       76     0.000     0.000     0.000     0.000      106        0       42       25       19        3       20    11.809       50     38.6    4.553   -9.900     1.35    0.000    0.000       27        8     2063  Maize_short_Chisinau_7May_NonOptimum_26_NCC.PRM
  Tot(84)        7        5     2064    108.3    582.1   1337.0   440.00      0.0    108.3      0.0      0.0      0.0    106.3       41    223.8    175.3       76     0.000     0.000     0.000     0.000      103        0       42       25        9       13       20    11.020       46     39.0    4.301   -9.900     1.31    0.000    0.000       27        8     2064  Maize_short_Chisinau_7May_NonOptimum_26_NCC.PRM
  Tot(85)        7        5     2065    138.8    582.5   1287.9   440.00      0.0    137.9      0.9      1.8      0.0    132.1       53    228.3    177.9       77     0.000     0.000     0.000     0.000      107        0       42       25        7        7       20    11.752       51     39.0    4.578   -9.900     1.27    0.000    0.000       27        8     2065  Maize_short_Chisinau_7May_NonOptimum_26_NCC.PRM
  Tot(86)        7        5     2066    118.4    633.7   1325.9   440.00      0.0    103.6     14.8     18.7      0.0     96.3       29    204.3    161.4       74     0.000     0.000     0.000     0.000       96        0       42       25        8       23       21     9.354       39     32.5    3.044   -9.900     1.02    0.000    0.000       27        8     2066  Maize_short_Chisinau_7May_NonOptimum_26_NCC.PRM
  Tot(87)        7        5     2067    178.0    502.1   1233.6   439.00      0.0    174.4      3.6      1.3      0.0    114.7       64    278.0    214.0       87     0.000     0.000     0.000     0.000      107        0       42       25       13        2       10    15.124       64     39.7    6.010   -9.900     1.53    0.000    0.000       27        8     2067  Maize_short_Chisinau_7May_NonOptimum_26_NCC.PRM
  Tot(88)        7        5     2068    242.4    515.1   1301.3   439.00      0.0    238.8      3.6      7.3      0.0    122.0       63    303.0    234.1       93     0.000     0.000     0.000     0.000      107        0       42       25       12        7        4    16.348       68     40.4    6.608   -9.900     1.55    0.000    0.000       27        8     2068  Maize_short_Chisinau_7May_NonOptimum_26_NCC.PRM
  Tot(89)        7        5     2069    164.1    586.5   1341.6   438.00      0.0    151.2     12.9     19.0      0.0     91.2       41    266.2    209.2       76     0.000     0.000     0.000     0.000      107        0       42       25       10       13       19    12.559       52     39.5    4.964   -9.900     1.39    0.000    0.000       27        8     2069  Maize_short_Chisinau_7May_NonOptimum_26_NCC.PRM
  Tot(90)        7        5     2070    204.4    547.7   1278.8   437.00      0.0    173.5     30.9     31.1      0.0    125.2       53    230.3    180.6       78     0.000     0.000     0.000     0.000      104        0       42       25        9       14       19    11.481       48     39.5    4.534   -9.900     1.28    0.000    0.000       27        8     2070  Maize_short_Chisinau_7May_NonOptimum_26_NCC.PRM
  Tot(91)        7        5     2071    106.4    557.9   1268.7   437.00      0.0    106.4      0.0      0.0      0.0     91.8       37    231.1    180.6       77     0.000     0.000     0.000     0.000      107        0       42       25        8       12       19    11.732       49     39.4    4.623   -9.900     1.43    0.000    0.000       27        8     2071  Maize_short_Chisinau_7May_NonOptimum_26_NCC.PRM
  Tot(92)        7        5     2072    192.7    454.8   1152.8   436.00      0.0    189.6      3.1      3.9      0.0     92.9       56    284.1    219.0       98     0.000     0.000     0.000     0.000      107        0       42       25       12        0        2    17.350       74     40.0    6.939   -9.900     1.84    0.000    0.000       27        8     2072  Maize_short_Chisinau_7May_NonOptimum_26_NCC.PRM
  Tot(93)        7        5     2073     94.2    582.7   1235.1   436.00      0.0     93.7      0.5      1.0      0.0     99.7       39    213.2    167.7       72     0.000     0.000     0.000     0.000      101        0       42       25       15       17       22    10.155       43     37.3    3.789   -9.900     1.21    0.000    0.000       27        8     2073  Maize_short_Chisinau_7May_NonOptimum_26_NCC.PRM
  Tot(94)        7        5     2074    253.7    443.4   1126.4   435.00      0.0    247.5      6.2     12.5      0.0    103.4       54    244.8    188.3      100     0.000     0.000     0.000     0.000      107        0       42       25       15        1        0    16.237       75     40.0    6.495   -9.900     1.87    0.000    0.000       27        8     2074  Maize_short_Chisinau_7May_NonOptimum_26_NCC.PRM
  Tot(95)        7        5     2075    102.8    578.9   1316.4   435.00      0.0    102.8      0.0      0.0      0.0    102.8       36    218.6    172.3       79     0.000     0.000     0.000     0.000      102        0       42       25        7       12       19    10.952       46     38.6    4.227   -9.900     1.32    0.000    0.000       27        8     2075  Maize_short_Chisinau_7May_NonOptimum_26_NCC.PRM
  Tot(96)        7        5     2076    189.7    556.5   1293.4   434.00      0.0    188.5      1.2      2.7      0.0    133.8       62    263.2    203.9       80     0.000     0.000     0.000     0.000      107        0       42       25       15        4       15    12.996       55     38.9    5.058   -9.900     1.27    0.000    0.000       27        8     2076  Maize_short_Chisinau_7May_NonOptimum_26_NCC.PRM
  Tot(97)        7        5     2077    257.6    450.3   1148.7   433.00      0.0    227.6     30.0     48.6      0.0     92.0       60    285.7    220.6       97     0.000     0.000     0.000     0.000      107        0       42       25       14        2        2    17.059       73     40.0    6.831   -9.900     1.81    0.000    0.000       27        8     2077  Maize_short_Chisinau_7May_NonOptimum_26_NCC.PRM
  Tot(98)        7        5     2078    179.7    631.0   1404.3   433.00      0.0    178.3      1.4      1.2      0.0    153.1       56    249.6    196.7       74     0.000     0.000     0.000     0.000      107        0       42       25        5       13       23    11.705       48     38.6    4.513   -9.900     1.12    0.000    0.000       27        8     2078  Maize_short_Chisinau_7May_NonOptimum_26_NCC.PRM
  Tot(99)        7        5     2079    128.6    582.3   1258.8   432.00      0.0    121.4      7.2      5.5      0.0     97.5       37    226.1    177.5       77     0.000     0.000     0.000     0.000      100        0       42       25       14       15       20    10.200       43     36.6    3.730   -9.900     1.17    0.000    0.000       27        8     2079  Maize_short_Chisinau_7May_NonOptimum_26_NCC.PRM
 Tot(100)        7        5     2080    160.2    552.7   1259.9   432.00      0.0    154.8      5.4     12.3      0.0    119.0       54    244.1    190.4       78     0.000     0.000     0.000     0.000      107        0       42       25       12        6       19    12.116       51     39.0    4.723   -9.900     1.30    0.000    0.000       27        8     2080  Maize_short_Chisinau_7May_NonOptimum_26_NCC.PRM
 Tot(101)        7        5     2081    149.2    568.8   1336.0   431.00      0.0    148.5      0.7      0.4      0.0    125.8       53    244.7    191.1       78     0.000     0.000     0.000     0.000      105        0       42       25        7        8       20    12.018       50     38.9    4.676   -9.900     1.26    0.000    0.000       27        8     2081  Maize_short_Chisinau_7May_NonOptimum_26_NCC.PRM
 Tot(102)        7        5     2082    208.0    495.8   1240.9   431.00      0.0    205.1      2.9      6.3      0.0    134.1       68    273.7    211.9       91     0.000     0.000     0.000     0.000      107        0       42       25       10        5        7    15.903       68     40.0    6.355   -9.900     1.56    0.000    0.000       27        8     2082  Maize_short_Chisinau_7May_NonOptimum_26_NCC.PRM
 Tot(103)        7        5     2083    131.3    550.2   1299.5   430.00      0.0    131.3      0.0      0.0      0.0     90.6       43    265.3    206.4       80     0.000     0.000     0.000     0.000      107        0       42       25       11        4       16    13.687       57     39.1    5.351   -9.900     1.50    0.000    0.000       27        8     2083  Maize_short_Chisinau_7May_NonOptimum_26_NCC.PRM
 Tot(104)        7        5     2084    124.2    576.7   1380.1   429.00      0.0    122.7      1.5      0.4      0.0    113.2       42    223.7    175.6       78     0.000     0.000     0.000     0.000      100        0       42       25        7       14       20    10.552       44     36.6    3.865   -9.900     1.19    0.000    0.000       27        8     2084  Maize_short_Chisinau_7May_NonOptimum_26_NCC.PRM
 Tot(105)        7        5     2085    231.2    505.6   1143.1   429.00      0.0    198.6     32.6     41.3      0.0    111.6       63    267.2    207.0       84     0.000     0.000     0.000     0.000      107        0       42       25       13        3       13    13.872       60     39.5    5.479   -9.900     1.45    0.000    0.000       27        8     2085  Maize_short_Chisinau_7May_NonOptimum_26_NCC.PRM
 Tot(106)        7        5     2086     59.2    629.1   1337.3   428.00      0.0     59.2      0.0      0.6      0.0     84.4       25    185.7    147.8       71     0.000     0.000     0.000     0.000       93        0       42       25       15       24       21     8.272       35     29.5    2.444   -9.900     0.91    0.000    0.000       27        8     2086  Maize_short_Chisinau_7May_NonOptimum_26_NCC.PRM
 Tot(107)        7        5     2087    215.2    557.6   1265.5   428.00      0.0    197.5     17.7     22.9      0.0    139.1       63    258.7    200.5       79     0.000     0.000     0.000     0.000      107        0       42       25        9        6       16    13.195       56     39.5    5.207   -9.900     1.31    0.000    0.000       27        8     2087  Maize_short_Chisinau_7May_NonOptimum_26_NCC.PRM
 Tot(108)        7        5     2088    241.6    507.2   1216.4   427.00      0.0    230.4     11.2     33.0      0.0    132.1       73    282.7    218.4       86     0.000     0.000     0.000     0.000      107        0       42       25       12        2       11    14.876       63     39.8    5.917   -9.900     1.43    0.000    0.000       27        8     2088  Maize_short_Chisinau_7May_NonOptimum_26_NCC.PRM
 Tot(109)        7        5     2089    135.6    538.7   1212.3   427.00      0.0    131.2      4.4     20.6      0.0    103.5       49    227.7    178.5       77     0.000     0.000     0.000     0.000      105        0       42       25       16        9       20    11.464       48     39.1    4.482   -9.900     1.35    0.000    0.000       27        8     2089  Maize_short_Chisinau_7May_NonOptimum_26_NCC.PRM
 Tot(110)        7        5     2090    206.4    514.2   1147.4   426.00      0.0    193.7     12.7     30.5      0.0    106.9       59    275.6    213.8       85     0.000     0.000     0.000     0.000      107        0       42       25       15        4       14    13.871       60     39.5    5.482   -9.900     1.43    0.000    0.000       27        8     2090  Maize_short_Chisinau_7May_NonOptimum_26_NCC.PRM
 Tot(111)        7        5     2091    141.7    560.2   1245.5   425.00      0.0    138.4      3.3      6.1      0.0    124.9       49    208.7    163.7       75     0.000     0.000     0.000     0.000      107        0       42       25       12       12       19     9.601       43     36.6    3.510   -9.900     1.05    0.000    0.000       27        8     2091  Maize_short_Chisinau_7May_NonOptimum_26_NCC.PRM
 Tot(112)        7        5     2092    209.6    495.5   1180.0   425.00      0.0    195.3     14.3     35.1      0.0    122.9       68    257.6    200.0       83     0.000     0.000     0.000     0.000      107        0       42       25       11        5       15    13.714       58     39.6    5.433   -9.900     1.43    0.000    0.000       27        8     2092  Maize_short_Chisinau_7May_NonOptimum_26_NCC.PRM
 Tot(113)        7        5     2093    187.1    519.9   1161.9   424.00      0.0    174.6     12.5     30.5      0.0     99.4       48    256.3    198.5       83     0.000     0.000     0.000     0.000      107        0       42       25       13        6       12    13.606       59     39.4    5.361   -9.900     1.51    0.000    0.000       27        8     2093  Maize_short_Chisinau_7May_NonOptimum_26_NCC.PRM
 Tot(114)        7        5     2094    148.1    627.6   1438.4   424.00      0.0    145.2      2.9      4.9      0.0    141.4       40    183.4    147.8       71     0.000     0.000     0.000     0.000      107        0       42       25        4       29       17     7.841       32     40.0    3.133   -9.900     0.96    0.000    0.000       27        8     2094  Maize_short_Chisinau_7May_NonOptimum_26_NCC.PRM
 Tot(115)        7        5     2095    137.1    595.0   1352.6   423.00      0.0    136.8      0.3      1.0      0.0    118.4       42    237.3    187.5       75     0.000     0.000     0.000     0.000      107        0       42       25        6       24       18    11.518       49     40.0    4.605   -9.900     1.29    0.000    0.000       27        8     2095  Maize_short_Chisinau_7May_NonOptimum_26_NCC.PRM
 Tot(116)        7        5     2096    283.5    433.2   1086.5   423.00      0.0    267.8     15.7     40.8      0.0    122.1       78    268.0    206.6      100     0.000     0.000     0.000     0.000      107        0       42       25       22        0        0    16.096       75     40.0    6.444   -9.900     1.65    0.000    0.000       27        8     2096  Maize_short_Chisinau_7May_NonOptimum_26_NCC.PRM
 Tot(117)        7        5     2097    107.7    520.7   1205.6   422.00      0.0    107.0      0.7      0.9      0.0     94.3       43    229.0    178.9       81     0.000     0.000     0.000     0.000      106        0       42       25       18       12       18    11.665       50     39.7    4.629   -9.900     1.43    0.000    0.000       27        8     2097  Maize_short_Chisinau_7May_NonOptimum_26_NCC.PRM
 Tot(118)        7        5     2098    212.6    528.4   1227.6   422.00      0.0    206.6      6.0      7.3      0.0    147.0       76    275.5    212.9       83     0.000     0.000     0.000     0.000      107        0       42       25       11        2       11    14.639       63     39.6    5.796   -9.900     1.37    0.000    0.000       27        8     2098  Maize_short_Chisinau_7May_NonOptimum_26_NCC.PRM
 Tot(119)        7        5     2099    175.0    531.4   1278.0   421.00      0.0    173.0      2.0      4.7      0.0    115.4       57    273.2    211.9       83     0.000     0.000     0.000     0.000      107        0       42       25       12        6       13    14.249       60     39.7    5.660   -9.900     1.46    0.000    0.000       27        8     2099  Maize_short_Chisinau_7May_NonOptimum_26_NCC.PRM
