AquaCrop 7.0 (August 2022) - Output created on (date) : 23-11-2022   at (time) : 12:09:13

    RunNr     Day1   Month1    Year1     Rain      ETo       GD     CO2      Irri   Infilt   Runoff    Drain   Upflow        E     E/Ex       Tr      TrW   Tr/Trx    SaltIn   SaltOut    SaltUp  SaltProf     Cycle   SaltStr  FertStr  WeedStr  TempStr   ExpStr   StoStr  BioMass  Brelative   HI    Y(dry)  Y(fresh)    WPet      Bin     Bout     DayN   MonthN    YearN
                                           mm       mm  degC.day    ppm        mm       mm       mm       mm       mm       mm        %       mm       mm        %    ton/ha    ton/ha    ton/ha    ton/ha      days       %        %        %        %        %        %    ton/ha        %       %    ton/ha   ton/ha    kg/m3   ton/ha   ton/ha
   Tot(1)       22        5     1981    240.8    460.2   1219.9   340.11      0.0    210.3     30.5     45.0      0.0    104.1       48    244.4    189.2      100     0.000     0.000     0.000     0.000      107        0       42       25       13        3        0    15.113       74     40.1    6.058   -9.900     1.74    0.000    0.000       11        9     1981  Maize_Short_Soroca_22May_NonOptimum_26_MOHC.PRM
   Tot(2)       22        5     1982    274.6    445.7   1204.3   341.22      0.0    238.9     35.7     42.9      0.0    128.1       64    250.3    193.3      100     0.000     0.000     0.000     0.000      107        0       42       25       11        2        0    16.014       74     40.0    6.413   -9.900     1.69    0.000    0.000       11        9     1982  Maize_Short_Soroca_22May_NonOptimum_26_MOHC.PRM
   Tot(3)       22        5     1983    219.2    435.3   1214.1   342.84      0.0    214.3      4.9      0.1      0.0    106.4       56    242.1    186.9      100     0.000     0.000     0.000     0.000      107        0       42       25       11        1        0    15.803       75     40.0    6.322   -9.900     1.81    0.000    0.000       11        9     1983  Maize_Short_Soroca_22May_NonOptimum_26_MOHC.PRM
   Tot(4)       22        5     1984    324.1    420.3   1075.3   344.40      0.0    305.9     18.2     19.5      0.0    155.4       90    234.9    182.6      100     0.000     0.000     0.000     0.000      107        0       42       25       18        0        0    15.245       75     40.0    6.098   -9.900     1.56    0.000    0.000       11        9     1984  Maize_Short_Soroca_22May_NonOptimum_26_MOHC.PRM
   Tot(5)       22        5     1985    381.4    448.7   1131.4   345.87      0.0    343.1     38.3     63.4      0.0    143.5       80    261.4    202.1      100     0.000     0.000     0.000     0.000      107        0       42       25       17        1        0    15.276       75     40.1    6.128   -9.900     1.51    0.000    0.000       11        9     1985  Maize_Short_Soroca_22May_NonOptimum_26_MOHC.PRM
   Tot(6)       22        5     1986    162.2    512.9   1240.3   347.19      0.0    161.8      0.4      0.0      0.0    109.8       46    253.4    196.7       94     0.000     0.000     0.000     0.000      107        0       42       25       13        7        5    14.037       69     40.1    5.631   -9.900     1.55    0.000    0.000       11        9     1986  Maize_Short_Soroca_22May_NonOptimum_26_MOHC.PRM
   Tot(7)       22        5     1987    256.6    456.5   1133.8   348.98      0.0    246.2     10.4     15.1      0.0    136.1       68    245.6    191.7      100     0.000     0.000     0.000     0.000      107        0       42       25       17       12        0    14.615       73     40.5    5.921   -9.900     1.55    0.000    0.000       11        9     1987  Maize_Short_Soroca_22May_NonOptimum_26_MOHC.PRM
   Tot(8)       22        5     1988    324.3    426.4   1235.2   351.45      0.0    304.9     19.4     38.9      0.0    140.6       84    261.7    203.6      100     0.000     0.000     0.000     0.000      107        0       42       25       12        1        0    15.942       76     40.1    6.389   -9.900     1.59    0.000    0.000       11        9     1988  Maize_Short_Soroca_22May_NonOptimum_26_MOHC.PRM
   Tot(9)       22        5     1989    398.6    434.0   1151.2   352.89      0.0    334.0     64.6     24.5      0.0    114.7       60    245.6    191.2      100     0.000     0.000     0.000     0.000      107        0       42       25       14        4        0    15.504       74     40.1    6.224   -9.900     1.73    0.000    0.000       11        9     1989  Maize_Short_Soroca_22May_NonOptimum_26_MOHC.PRM
  Tot(10)       22        5     1990    193.6    463.7   1109.4   354.16      0.0    190.8      2.8      6.4      0.0    145.0       75    243.2    188.9       92     0.000     0.000     0.000     0.000      107        0       42       25       17        6        8    14.208       68     40.2    5.707   -9.900     1.47    0.000    0.000       11        9     1990  Maize_Short_Soroca_22May_NonOptimum_26_MOHC.PRM
  Tot(11)       22        5     1991    419.0    410.7   1159.5   355.48      0.0    366.8     52.2     52.7      0.0    138.5       81    241.6    186.6      100     0.000     0.000     0.000     0.000      107        0       42       25       14        1        0    16.131       76     40.0    6.457   -9.900     1.70    0.000    0.000       11        9     1991  Maize_Short_Soroca_22May_NonOptimum_26_MOHC.PRM
  Tot(12)       22        5     1992    208.9    511.5   1268.1   356.27      0.0    203.2      5.7     14.5      0.0    147.2       71    241.9    189.8       80     0.000     0.000     0.000     0.000      107        0       42       25       11       13       14    12.129       55     39.8    4.830   -9.900     1.24    0.000    0.000       11        9     1992  Maize_Short_Soroca_22May_NonOptimum_26_MOHC.PRM
  Tot(13)       22        5     1993    240.0    450.5   1102.8   356.95      0.0    233.7      6.3      5.7      0.0    119.2       61    243.7    187.5      100     0.000     0.000     0.000     0.000      107        0       42       25       17        2        0    14.725       75     40.1    5.899   -9.900     1.63    0.000    0.000       11        9     1993  Maize_Short_Soroca_22May_NonOptimum_26_MOHC.PRM
  Tot(14)       22        5     1994    254.5    502.2   1248.0   358.63      0.0    222.8     31.7     20.8      0.0    124.3       56    248.7    195.0       87     0.000     0.000     0.000     0.000      107        0       42       25       12       13        8    13.509       60     40.5    5.468   -9.900     1.47    0.000    0.000       11        9     1994  Maize_Short_Soroca_22May_NonOptimum_26_MOHC.PRM
  Tot(15)       22        5     1995    376.0    484.7   1320.2   360.62      0.0    320.5     55.5     21.5      0.0    109.4       50    278.5    215.9      100     0.000     0.000     0.000     0.000      107        0       42       25        6        4        0    16.384       73     40.1    6.563   -9.900     1.69    0.000    0.000       11        9     1995  Maize_Short_Soroca_22May_NonOptimum_26_MOHC.PRM
  Tot(16)       22        5     1996    300.9    473.4   1194.7   362.37      0.0    280.7     20.2     14.7      0.0     98.5       42    244.4    191.0      100     0.000     0.000     0.000     0.000      107        0       42       25       13        3        0    15.280       73     40.0    6.112   -9.900     1.78    0.000    0.000       11        9     1996  Maize_Short_Soroca_22May_NonOptimum_26_MOHC.PRM
  Tot(17)       22        5     1997    330.4    417.9   1118.9   363.47      0.0    311.2     19.2     16.2      0.0    121.6       65    228.4    176.9      100     0.000     0.000     0.000     0.000      107        0       42       25       15        1        0    15.967       75     40.0    6.387   -9.900     1.82    0.000    0.000       11        9     1997  Maize_Short_Soroca_22May_NonOptimum_26_MOHC.PRM
  Tot(18)       22        5     1998    279.4    435.7   1188.1   366.50      0.0    261.5     17.9     17.9      0.0    117.5       66    246.1    188.8      100     0.000     0.000     0.000     0.000      107        0       42       25       15        1        0    14.875       75     40.0    5.951   -9.900     1.64    0.000    0.000       11        9     1998  Maize_Short_Soroca_22May_NonOptimum_26_MOHC.PRM
  Tot(19)       22        5     1999    167.8    514.8   1406.8   368.14      0.0    167.8      0.0      0.0      0.0    106.3       41    257.4    202.8       94     0.000     0.000     0.000     0.000      107        0       42       25        3       16        4    15.161       66     40.5    6.147   -9.900     1.69    0.000    0.000       11        9     1999  Maize_Short_Soroca_22May_NonOptimum_26_MOHC.PRM
  Tot(20)       22        5     2000    266.5    494.1   1237.4   369.41      0.0    256.4     10.1     11.7      0.0    112.2       48    270.3    209.2      100     0.000     0.000     0.000     0.000      107        0       42       25       12        2        0    16.034       74     40.0    6.415   -9.900     1.68    0.000    0.000       11        9     2000  Maize_Short_Soroca_22May_NonOptimum_26_MOHC.PRM
  Tot(21)       22        5     2001    315.8    471.8   1256.9   371.07      0.0    291.7     24.1     19.9      0.0    135.7       74    285.6    222.3       96     0.000     0.000     0.000     0.000      107        0       42       25       13        1        4    15.874       71     40.0    6.346   -9.900     1.51    0.000    0.000       11        9     2001  Maize_Short_Soroca_22May_NonOptimum_26_MOHC.PRM
  Tot(22)       22        5     2002    383.6    500.9   1374.8   373.16      0.0    349.5     34.1      2.8      0.0    144.8       64    295.6    230.9      100     0.000     0.000     0.000     0.000      107        0       42       25        7       10        0    16.908       73     40.1    6.781   -9.900     1.54    0.000    0.000       11        9     2002  Maize_Short_Soroca_22May_NonOptimum_26_MOHC.PRM
  Tot(23)       22        5     2003    341.0    524.1   1271.7   375.80      0.0    288.4     52.6     47.8      0.0    102.3       39    266.2    205.7      100     0.000     0.000     0.000     0.000      107        0       42       25       11        4        0    15.585       73     40.0    6.236   -9.900     1.69    0.000    0.000       11        9     2003  Maize_Short_Soroca_22May_NonOptimum_26_MOHC.PRM
  Tot(24)       22        5     2004    246.8    480.3   1170.9   377.49      0.0    225.9     20.9      0.0      0.0     76.1       31    243.8    191.3      100     0.000     0.000     0.000     0.000      107        0       42       25       12        7        0    15.623       72     40.1    6.267   -9.900     1.96    0.000    0.000       11        9     2004  Maize_Short_Soroca_22May_NonOptimum_26_MOHC.PRM
  Tot(25)       22        5     2005    191.9    472.0   1278.0   379.80      0.0    190.3      1.6      0.5      0.0    108.7       51    269.4    207.6       99     0.000     0.000     0.000     0.000      107        0       42       25        8        5        1    16.828       74     40.2    6.767   -9.900     1.79    0.000    0.000       11        9     2005  Maize_Short_Soroca_22May_NonOptimum_26_MOHC.PRM
  Tot(26)       22        5     2006    297.5    485.6   1226.9   381.90      0.0    283.3     14.2     20.3      0.0    130.8       64    286.8    223.8       99     0.000     0.000     0.000     0.000      107        0       42       25       14       11        0    16.326       73     40.5    6.614   -9.900     1.58    0.000    0.000       11        9     2006  Maize_Short_Soroca_22May_NonOptimum_26_MOHC.PRM
  Tot(27)       22        5     2007    171.9    576.2   1439.4   383.77      0.0    171.9      0.0      0.0      0.0    111.7       35    248.0    196.4       90     0.000     0.000     0.000     0.000      107        0       42       25        5       24        7    13.318       59     40.8    5.428   -9.900     1.51    0.000    0.000       11        9     2007  Maize_Short_Soroca_22May_NonOptimum_26_MOHC.PRM
  Tot(28)       22        5     2008    348.1    533.3   1326.6   385.59      0.0    288.2     59.9      0.7      0.0    123.6       54    317.8    247.0      100     0.000     0.000     0.000     0.000      107        0       42       25        6        6        0    17.072       73     40.0    6.829   -9.900     1.55    0.000    0.000       11        9     2008  Maize_Short_Soroca_22May_NonOptimum_26_MOHC.PRM
  Tot(29)       22        5     2009    203.0    548.8   1334.5   387.37      0.0    201.4      1.6      0.3      0.0    154.6       62    265.5    208.1       86     0.000     0.000     0.000     0.000      107        0       42       25        7        8       13    13.864       60     40.0    5.545   -9.900     1.32    0.000    0.000       11        9     2009  Maize_Short_Soroca_22May_NonOptimum_26_MOHC.PRM
  Tot(30)       22        5     2010    347.1    480.7   1367.9   389.85      0.0    318.5     28.6     55.2      0.0    140.3       70    283.4    218.5       98     0.000     0.000     0.000     0.000      107        0       42       25        9        1        1    16.346       74     40.0    6.546   -9.900     1.55    0.000    0.000       11        9     2010  Maize_Short_Soroca_22May_NonOptimum_26_MOHC.PRM
  Tot(31)       22        5     2011    182.7    539.3   1341.3   391.63      0.0    180.8      1.9      0.0      0.0    124.7       48    270.0    210.2       91     0.000     0.000     0.000     0.000      107        0       42       25        6        7        8    15.031       65     39.9    6.003   -9.900     1.52    0.000    0.000       11        9     2011  Maize_Short_Soroca_22May_NonOptimum_26_MOHC.PRM
  Tot(32)       22        5     2012    126.3    606.4   1414.1   393.82      0.0    126.0      0.3      0.0      0.0    116.6       35    223.3    177.9       79     0.000     0.000     0.000     0.000      107        0       42       25        6       25       16    11.053       48     40.4    4.462   -9.900     1.31    0.000    0.000       11        9     2012  Maize_Short_Soroca_22May_NonOptimum_26_MOHC.PRM
  Tot(33)       22        5     2013    245.3    495.7   1303.4   396.48      0.0    225.7     19.6     20.7      0.0    155.8       71    237.6    185.6       86     0.000     0.000     0.000     0.000      107        0       42       25        7        9        8    13.725       60     40.2    5.519   -9.900     1.40    0.000    0.000       11        9     2013  Maize_Short_Soroca_22May_NonOptimum_26_MOHC.PRM
  Tot(34)       22        5     2014    253.7    516.6   1359.2   398.55      0.0    231.9     21.8     10.0      0.0    103.5       48    307.9    237.5       99     0.000     0.000     0.000     0.000      107        0       42       25        7        2        1    17.115       74     40.0    6.846   -9.900     1.66    0.000    0.000       11        9     2014  Maize_Short_Soroca_22May_NonOptimum_26_MOHC.PRM
  Tot(35)       22        5     2015     64.6    613.4   1397.9   401.00      0.0     64.6      0.0      0.0      0.0     90.2       24    179.8    145.4       77     0.000     0.000     0.000     0.000       97        0       42       25        5       28       19     8.464       37     34.0    2.879   -9.900     1.11    0.000    0.000       11        9     2015  Maize_Short_Soroca_22May_NonOptimum_26_MOHC.PRM
  Tot(36)       22        5     2016    223.5    541.1   1411.6   403.00      0.0    221.3      2.2      0.5      0.0    172.0       75    271.0    211.5       84     0.000     0.000     0.000     0.000      107        0       42       25        5       16       13    13.971       59     40.4    5.644   -9.900     1.27    0.000    0.000       11        9     2016  Maize_Short_Soroca_22May_NonOptimum_26_MOHC.PRM
  Tot(37)       22        5     2017    190.2    557.9   1350.9   405.00      0.0    188.7      1.5      0.3      0.0    148.1       57    258.0    202.0       86     0.000     0.000     0.000     0.000      107        0       42       25        6       12       13    13.595       59     40.1    5.452   -9.900     1.34    0.000    0.000       11        9     2017  Maize_Short_Soroca_22May_NonOptimum_26_MOHC.PRM
  Tot(38)       22        5     2018    247.0    517.0   1451.6   408.00      0.0    234.6     12.4      7.5      0.0    111.3       46    293.2    226.7       99     0.000     0.000     0.000     0.000      107        0       42       25        4        3        1    17.303       73     40.0    6.920   -9.900     1.71    0.000    0.000       11        9     2018  Maize_Short_Soroca_22May_NonOptimum_26_MOHC.PRM
  Tot(39)       22        5     2019    224.9    551.2   1441.3   410.00      0.0    207.2     17.7     24.8      0.0    162.1       65    244.6    191.7       82     0.000     0.000     0.000     0.000      107        0       42       25        3        9       16    13.361       57     39.6    5.296   -9.900     1.30    0.000    0.000       11        9     2019  Maize_Short_Soroca_22May_NonOptimum_26_MOHC.PRM
  Tot(40)       22        5     2020    176.5    651.4   1501.1   412.00      0.0    169.4      7.1      5.3      0.0    123.3       35    199.3    158.3       71     0.000     0.000     0.000     0.000       90        0       42       25       10       25       22     7.833       33     26.4    2.070   -9.900     0.69    0.000    0.000       11        9     2020  Maize_Short_Soroca_22May_NonOptimum_26_MOHC.PRM
  Tot(41)       22        5     2021    140.5    649.0   1533.9   414.00      0.0    131.7      8.8      0.0      0.0    111.2       29    226.1    182.3       81     0.000     0.000     0.000     0.000      107        0       42       25        2       35       13    10.507       44     40.6    4.266   -9.900     1.26    0.000    0.000       11        9     2021  Maize_Short_Soroca_22May_NonOptimum_26_MOHC.PRM
  Tot(42)       22        5     2022    154.2    665.0   1586.6   417.00      0.0    148.4      5.8      2.1      0.0    129.5       37    238.1    189.5       77     0.000     0.000     0.000     0.000      102        0       42       25        5       23       20    10.542       43     38.0    4.005   -9.900     1.09    0.000    0.000       11        9     2022  Maize_Short_Soroca_22May_NonOptimum_26_MOHC.PRM
  Tot(43)       22        5     2023     90.6    730.0   1628.6   419.00      0.0     90.5      0.1      0.0      0.0    111.2       23    162.7    131.5       71     0.000     0.000     0.000     0.000       85        0       42       25        1       33       20     6.435       27     22.2    1.427   -9.900     0.56    0.000    0.000       11        9     2023  Maize_Short_Soroca_22May_NonOptimum_26_MOHC.PRM
  Tot(44)       22        5     2024    164.6    604.7   1506.6   421.00      0.0    140.9     23.7     22.2      0.0    127.9       44    210.9    165.1       74     0.000     0.000     0.000     0.000       98        0       42       25        3       14       21    10.316       42     34.4    3.548   -9.900     1.06    0.000    0.000       11        9     2024  Maize_Short_Soroca_22May_NonOptimum_26_MOHC.PRM
  Tot(45)       22        5     2025    185.1    596.5   1386.6   423.00      0.0    155.5     29.6      2.5      0.0    107.9       28    160.9    130.1       73     0.000     0.000     0.000     0.000      107        0       42       25       11       34       15     6.561       30     31.7    2.083   -9.900     0.78    0.000    0.000       11        9     2025  Maize_Short_Soroca_22May_NonOptimum_26_MOHC.PRM
  Tot(46)       22        5     2026     92.6    730.0   1644.5   424.00      0.0     90.5      2.1      0.0      0.0     85.0       22    224.7    177.3       72     0.000     0.000     0.000     0.000       95        0       42       25        3       20       22     8.850       36     27.7    2.454   -9.900     0.80    0.000    0.000       11        9     2026  Maize_Short_Soroca_22May_NonOptimum_26_MOHC.PRM
  Tot(47)       22        5     2027     68.7    697.0   1608.3   426.00      0.0     67.7      1.0      1.2      0.0     99.6       22    162.8    131.4       72     0.000     0.000     0.000     0.000       85        0       42       25        2       33       20     6.385       26     21.5    1.373   -9.900     0.53    0.000    0.000       11        9     2027  Maize_Short_Soroca_22May_NonOptimum_26_MOHC.PRM
  Tot(48)       22        5     2028    202.7    680.4   1511.9   428.00      0.0    167.3     35.4      0.0      0.0    123.8       25    151.5    124.3       76     0.000     0.000     0.000     0.000       87        0       42       25        6       39       18     5.256       22     22.2    1.165   -9.900     0.45    0.000    0.000       11        9     2028  Maize_Short_Soroca_22May_NonOptimum_26_MOHC.PRM
  Tot(49)       22        5     2029    178.6    628.4   1536.0   429.00      0.0    152.6     26.0     52.5      0.0    123.2       37    182.0    144.3       71     0.000     0.000     0.000     0.000       89        0       42       25        4       25       22     7.933       32     25.6    2.031   -9.900     0.70    0.000    0.000       11        9     2029  Maize_Short_Soroca_22May_NonOptimum_26_MOHC.PRM
  Tot(50)       22        5     2030     39.0    781.3   1728.4   431.00      0.0     39.0      0.0      0.0      0.0     79.9       14    147.4    120.8       73     0.000     0.000     0.000     0.000       84        0       42       25        0       39       19     5.248       21     21.0    1.100   -9.900     0.49    0.000    0.000       11        9     2030  Maize_Short_Soroca_22May_NonOptimum_26_MOHC.PRM
  Tot(51)       22        5     2031    152.9    656.6   1577.6   432.00      0.0    147.5      5.4      1.9      0.0    116.7       36    250.8    196.7       78     0.000     0.000     0.000     0.000      103        0       42       25        4       13       21    11.014       45     39.0    4.294   -9.900     1.17    0.000    0.000       11        9     2031  Maize_Short_Soroca_22May_NonOptimum_26_MOHC.PRM
  Tot(52)       22        5     2032    118.9    749.3   1687.6   433.00      0.0    111.0      7.9      8.5      0.0    115.7       21    148.9    121.7       73     0.000     0.000     0.000     0.000       82        0       42       25        2       39       20     5.232       21     19.0    0.994   -9.900     0.41    0.000    0.000       11        9     2032  Maize_Short_Soroca_22May_NonOptimum_26_MOHC.PRM
  Tot(53)       22        5     2033    138.0    723.2   1651.8   435.00      0.0    131.2      6.8      6.8      0.0    147.2       32    161.7    130.2       68     0.000     0.000     0.000     0.000       82        0       42       25        1       33       22     6.041       25     16.5    0.995   -9.900     0.33    0.000    0.000       11        9     2033  Maize_Short_Soroca_22May_NonOptimum_26_MOHC.PRM
  Tot(54)       22        5     2034    282.6    512.2   1401.9   436.00      0.0    270.2     12.4     13.4      0.0    135.8       70    299.0    231.0       91     0.000     0.000     0.000     0.000      107        0       42       25        4        1        5    16.807       70     39.8    6.686   -9.900     1.54    0.000    0.000       11        9     2034  Maize_Short_Soroca_22May_NonOptimum_26_MOHC.PRM
  Tot(55)       22        5     2035     96.3    656.1   1550.4   437.00      0.0     96.2      0.1      0.0      0.0    111.7       30    193.5    154.2       72     0.000     0.000     0.000     0.000       91        0       42       25        1       25       21     8.123       33     27.6    2.246   -9.900     0.74    0.000    0.000       11        9     2035  Maize_Short_Soroca_22May_NonOptimum_26_MOHC.PRM
  Tot(56)       22        5     2036    105.8    718.6   1549.3   438.00      0.0    104.4      1.4      0.0      0.0    124.6       28    174.8    140.4       69     0.000     0.000     0.000     0.000       84        0       42       25        3       32       22     6.375       27     20.5    1.309   -9.900     0.46    0.000    0.000       11        9     2036  Maize_Short_Soroca_22May_NonOptimum_26_MOHC.PRM
  Tot(57)       22        5     2037     76.7    722.7   1625.6   438.00      0.0     76.3      0.4      0.0      0.0    107.0       22    166.3    135.3       75     0.000     0.000     0.000     0.000       88        0       42       25        2       36       19     6.520       27     25.1    1.633   -9.900     0.60    0.000    0.000       11        9     2037  Maize_Short_Soroca_22May_NonOptimum_26_MOHC.PRM
  Tot(58)       22        5     2038    202.5    540.9   1393.1   439.00      0.0    185.7     16.8     37.7      0.0    150.3       60    208.0    162.9       76     0.000     0.000     0.000     0.000       99        0       42       25        5       14       20    10.757       45     35.6    3.834   -9.900     1.10    0.000    0.000       11        9     2038  Maize_Short_Soroca_22May_NonOptimum_26_MOHC.PRM
  Tot(59)       22        5     2039     65.3    719.4   1640.0   440.00      0.0     65.3      0.0      0.0      0.0     96.9       20    156.0    127.1       74     0.000     0.000     0.000     0.000       84        0       42       25        3       37       20     5.913       24     21.0    1.239   -9.900     0.52    0.000    0.000       11        9     2039  Maize_Short_Soroca_22May_NonOptimum_26_MOHC.PRM
  Tot(60)       22        5     2040     46.5    714.3   1565.9   440.00      0.0     46.5      0.0      0.0      0.0     78.0       16    160.6    130.5       74     0.000     0.000     0.000     0.000       86        0       42       25        3       35       19     6.312       26     23.0    1.449   -9.900     0.62    0.000    0.000       11        9     2040  Maize_Short_Soroca_22May_NonOptimum_26_MOHC.PRM
  Tot(61)       22        5     2041     80.0    719.9   1588.3   441.00      0.0     79.9      0.1      0.0      0.0    108.2       24    174.0    140.0       72     0.000     0.000     0.000     0.000       87        0       42       25        4       31       21     7.060       29     23.7    1.675   -9.900     0.60    0.000    0.000       11        9     2041  Maize_Short_Soroca_22May_NonOptimum_26_MOHC.PRM
  Tot(62)       22        5     2042    245.4    546.8   1421.8   441.00      0.0    195.3     50.1     45.8      0.0    117.5       50    251.9    197.7       81     0.000     0.000     0.000     0.000      107        0       42       25        7       13       17    13.014       53     39.8    5.181   -9.900     1.40    0.000    0.000       11        9     2042  Maize_Short_Soroca_22May_NonOptimum_26_MOHC.PRM
  Tot(63)       22        5     2043    118.1    685.4   1617.7   441.00      0.0    110.6      7.5      7.6      0.0    130.2       32    176.1    140.9       69     0.000     0.000     0.000     0.000       86        0       42       25        2       30       22     7.088       29     12.9    0.916   -9.900     0.30    0.000    0.000       11        9     2043  Maize_Short_Soroca_22May_NonOptimum_26_MOHC.PRM
  Tot(64)       22        5     2044    211.4    595.3   1517.9   442.00      0.0    203.4      8.0      6.2      0.0    168.4       62    245.2    191.8       76     0.000     0.000     0.000     0.000      107        0       42       25        3       12       21    11.558       48     39.2    4.532   -9.900     1.10    0.000    0.000       11        9     2044  Maize_Short_Soroca_22May_NonOptimum_26_MOHC.PRM
  Tot(65)       22        5     2045    250.7    566.7   1411.9   442.00      0.0    213.7     37.0     50.7      0.0    143.8       52    199.9    157.6       72     0.000     0.000     0.000     0.000      107        0       42       25        7       19       17     9.617       41     39.8    3.832   -9.900     1.12    0.000    0.000       11        9     2045  Maize_Short_Soroca_22May_NonOptimum_26_MOHC.PRM
  Tot(66)       22        5     2046     44.5    820.4   1834.1   442.00      0.0     43.6      0.9      0.9      0.0     84.2       13    142.8    118.5       79     0.000     0.000     0.000     0.000       88        0       42       25        0       43       17     4.828       19     11.3    0.547   -9.900     0.25    0.000    0.000       11        9     2046  Maize_Short_Soroca_22May_NonOptimum_26_MOHC.PRM
  Tot(67)       22        5     2047    171.1    649.4   1604.6   442.00      0.0    161.5      9.6     29.4      0.0    131.8       38    197.7    156.6       71     0.000     0.000     0.000     0.000       91        0       42       25        1       23       21     8.611       35     27.7    2.387   -9.900     0.75    0.000    0.000       11        9     2047  Maize_Short_Soroca_22May_NonOptimum_26_MOHC.PRM
  Tot(68)       22        5     2048    174.9    548.0   1381.2   442.00      0.0    173.6      1.3      0.0      0.0    120.5       47    258.9    202.8       86     0.000     0.000     0.000     0.000      107        0       42       25        8       21       11    13.436       58     40.7    5.466   -9.900     1.44    0.000    0.000       11        9     2048  Maize_Short_Soroca_22May_NonOptimum_26_MOHC.PRM
  Tot(69)       22        5     2049    256.6    560.8   1457.9   443.00      0.0    235.1     21.5     13.9      0.0    121.2       48    303.9    236.8       95     0.000     0.000     0.000     0.000      107        0       42       25        5       13        4    16.207       68     40.5    6.562   -9.900     1.54    0.000    0.000       11        9     2049  Maize_Short_Soroca_22May_NonOptimum_26_MOHC.PRM
  Tot(70)       22        5     2050    174.6    621.0   1557.2   443.00      0.0    172.7      1.9      2.7      0.0    164.3       49    195.4    156.3       73     0.000     0.000     0.000     0.000      107        0       42       25        3       27       17     8.316       34     36.2    3.009   -9.900     0.84    0.000    0.000       11        9     2050  Maize_Short_Soroca_22May_NonOptimum_26_MOHC.PRM
  Tot(71)       22        5     2051    169.1    664.0   1597.2   443.00      0.0    164.9      4.2     12.4      0.0    153.7       44    209.0    165.0       73     0.000     0.000     0.000     0.000       92        0       42       25        3       21       21     8.818       36     28.8    2.537   -9.900     0.71    0.000    0.000       11        9     2051  Maize_Short_Soroca_22May_NonOptimum_26_MOHC.PRM
  Tot(72)       22        5     2052    149.3    603.7   1572.4   443.00      0.0    149.1      0.2      0.0      0.0    125.8       44    244.7    191.5       79     0.000     0.000     0.000     0.000      103        0       42       25        1       11       20    11.494       47     39.3    4.515   -9.900     1.22    0.000    0.000       11        9     2052  Maize_Short_Soroca_22May_NonOptimum_26_MOHC.PRM
  Tot(73)       22        5     2053    143.4    623.1   1569.4   443.00      0.0    143.4      0.0      0.0      0.0    150.9       43    187.9    149.2       73     0.000     0.000     0.000     0.000       93        0       42       25        2       25       20     8.718       36     30.1    2.625   -9.900     0.80    0.000    0.000       11        9     2053  Maize_Short_Soroca_22May_NonOptimum_26_MOHC.PRM
  Tot(74)       22        5     2054    105.0    562.3   1411.8   443.00      0.0    103.2      1.8      0.6      0.0    108.6       39    212.8    168.6       76     0.000     0.000     0.000     0.000      107        0       42       25        4       24       21    10.998       46     40.0    4.396   -9.900     1.37    0.000    0.000       11        9     2054  Maize_Short_Soroca_22May_NonOptimum_26_MOHC.PRM
  Tot(75)       22        5     2055    143.0    625.7   1551.2   443.00      0.0    131.5     11.5     28.8      0.0    110.9       32    215.3    172.8       74     0.000     0.000     0.000     0.000      107        0       42       25        2       30       20    10.597       43     39.7    4.205   -9.900     1.29    0.000    0.000       11        9     2055  Maize_Short_Soroca_22May_NonOptimum_26_MOHC.PRM
  Tot(76)       22        5     2056    147.1    659.4   1571.8   442.00      0.0    139.3      7.8      6.2      0.0    140.3       39    195.3    155.3       69     0.000     0.000     0.000     0.000      107        0       42       25        2       24       23     8.421       35     34.8    2.928   -9.900     0.87    0.000    0.000       11        9     2056  Maize_Short_Soroca_22May_NonOptimum_26_MOHC.PRM
  Tot(77)       22        5     2057    172.2    665.1   1607.3   442.00      0.0    163.0      9.2     14.6      0.0    146.1       46    224.0    176.6       68     0.000     0.000     0.000     0.000      101        0       42       25        1       22       25     9.743       39     36.8    3.584   -9.900     0.97    0.000    0.000       11        9     2057  Maize_Short_Soroca_22May_NonOptimum_26_MOHC.PRM
  Tot(78)       22        5     2058     61.2    679.1   1581.4   442.00      0.0     61.1      0.1      0.0      0.0     82.4       19    188.1    151.6       75     0.000     0.000     0.000     0.000       95        0       42       25        1       32       20     8.266       34     31.7    2.623   -9.900     0.98    0.000    0.000       11        9     2058  Maize_Short_Soroca_22May_NonOptimum_26_MOHC.PRM
  Tot(79)       22        5     2059    173.8    623.3   1556.8   442.00      0.0    160.4     13.4     18.7      0.0    100.6       32    260.8    206.7       81     0.000     0.000     0.000     0.000      107        0       42       25        5       22       16    12.326       50     40.0    4.934   -9.900     1.36    0.000    0.000       11        9     2059  Maize_Short_Soroca_22May_NonOptimum_26_MOHC.PRM
  Tot(80)       22        5     2060    129.3    604.1   1488.5   442.00      0.0    119.1     10.2     14.9      0.0    107.3       34    206.5    163.4       75     0.000     0.000     0.000     0.000       97        0       42       25        3       21       21     9.758       40     33.5    3.273   -9.900     1.06    0.000    0.000       11        9     2060  Maize_Short_Soroca_22May_NonOptimum_26_MOHC.PRM
  Tot(81)       22        5     2061    233.7    611.7   1529.8   441.00      0.0    158.5     75.2     77.0      0.0     98.1       31    198.1    156.3       73     0.000     0.000     0.000     0.000       93        0       42       25        2       22       21     9.034       37     29.8    2.693   -9.900     0.93    0.000    0.000       11        9     2061  Maize_Short_Soroca_22May_NonOptimum_26_MOHC.PRM
  Tot(82)       22        5     2062    148.0    626.7   1536.3   441.00      0.0    146.9      1.1      0.0      0.0    129.4       40    238.8    189.6       76     0.000     0.000     0.000     0.000      107        0       42       25        4       24       20    11.217       46     39.7    4.450   -9.900     1.21    0.000    0.000       11        9     2062  Maize_Short_Soroca_22May_NonOptimum_26_MOHC.PRM
  Tot(83)       22        5     2063    150.8    615.3   1547.6   441.00      0.0    147.4      3.4      2.3      0.0    149.2       44    178.5    142.5       70     0.000     0.000     0.000     0.000       89        0       42       25        2       28       21     7.640       31     25.6    1.954   -9.900     0.65    0.000    0.000       11        9     2063  Maize_Short_Soroca_22May_NonOptimum_26_MOHC.PRM
  Tot(84)       22        5     2064    125.7    666.8   1567.2   440.00      0.0    120.3      5.4      0.0      0.0    118.1       30    169.3    135.7       69     0.000     0.000     0.000     0.000       85        0       42       25        1       31       22     6.695       28     21.6    1.445   -9.900     0.56    0.000    0.000       11        9     2064  Maize_Short_Soroca_22May_NonOptimum_26_MOHC.PRM
  Tot(85)       22        5     2065     82.5    701.3   1609.0   440.00      0.0     82.5      0.0      0.0      0.0    112.2       22    163.2    134.4       82     0.000     0.000     0.000     0.000       98        0       42       25        1       40       16     6.916       28     35.5    2.458   -9.900     0.91    0.000    0.000       11        9     2065  Maize_Short_Soroca_22May_NonOptimum_26_MOHC.PRM
  Tot(86)       22        5     2066    250.8    582.6   1480.0   440.00      0.0    212.6     38.2      9.2      0.0    137.1       50    246.3    193.8       81     0.000     0.000     0.000     0.000      107        0       42       25        3       19       10    12.671       53     40.4    5.120   -9.900     1.34    0.000    0.000       11        9     2066  Maize_Short_Soroca_22May_NonOptimum_26_MOHC.PRM
  Tot(87)       22        5     2067    159.8    612.5   1472.3   439.00      0.0    147.6     12.2      0.0      0.0    108.8       31    218.8    176.4       82     0.000     0.000     0.000     0.000      107        0       42       25        4       33       10    10.676       44     40.6    4.339   -9.900     1.32    0.000    0.000       11        9     2067  Maize_Short_Soroca_22May_NonOptimum_26_MOHC.PRM
  Tot(88)       22        5     2068    217.4    526.8   1328.2   439.00      0.0    205.0     12.4     17.7      0.0    123.9       55    276.5    215.4       90     0.000     0.000     0.000     0.000      107        0       42       25        5        8        9    15.236       64     40.4    6.148   -9.900     1.54    0.000    0.000       11        9     2068  Maize_Short_Soroca_22May_NonOptimum_26_MOHC.PRM
  Tot(89)       22        5     2069     73.9    650.2   1609.4   438.00      0.0     73.9      0.0      0.0      0.0     96.9       25    196.1    159.1       73     0.000     0.000     0.000     0.000      107        0       42       25        1       33       23     9.130       37     39.7    3.626   -9.900     1.24    0.000    0.000       11        9     2069  Maize_Short_Soroca_22May_NonOptimum_26_MOHC.PRM
  Tot(90)       22        5     2070    143.6    570.3   1445.4   437.00      0.0    140.4      3.2      0.0      0.0    113.6       40    228.9    181.0       80     0.000     0.000     0.000     0.000      107        0       42       25        5       22       15    11.706       49     40.4    4.733   -9.900     1.38    0.000    0.000       11        9     2070  Maize_Short_Soroca_22May_NonOptimum_26_MOHC.PRM
  Tot(91)       22        5     2071     77.2    606.9   1476.6   437.00      0.0     77.2      0.0      0.0      0.0     99.5       27    183.4    147.6       77     0.000     0.000     0.000     0.000       97        0       42       25        4       28       18     8.629       37     34.1    2.940   -9.900     1.07    0.000    0.000       11        9     2071  Maize_Short_Soroca_22May_NonOptimum_26_MOHC.PRM
  Tot(92)       22        5     2072     58.8    624.6   1504.3   436.00      0.0     58.8      0.0      0.0      0.0     82.3       22    191.5    155.0       78     0.000     0.000     0.000     0.000      103        0       42       25        2       34       19     9.133       37     39.9    3.648   -9.900     1.34    0.000    0.000       11        9     2072  Maize_Short_Soroca_22May_NonOptimum_26_MOHC.PRM
  Tot(93)       22        5     2073     94.2    695.7   1626.4   436.00      0.0     90.0      4.2      6.6      0.0    118.7       25    160.1    130.3       76     0.000     0.000     0.000     0.000       88        0       42       25        0       37       19     6.496       27     25.1    1.629   -9.900     0.59    0.000    0.000       11        9     2073  Maize_Short_Soroca_22May_NonOptimum_26_MOHC.PRM
  Tot(94)       22        5     2074    106.7    596.2   1386.1   435.00      0.0    104.2      2.5      5.0      0.0    105.6       36    212.8    167.9       75     0.000     0.000     0.000     0.000       97        0       42       25        7       19       20     9.758       41     33.6    3.277   -9.900     1.04    0.000    0.000       11        9     2074  Maize_Short_Soroca_22May_NonOptimum_26_MOHC.PRM
  Tot(95)       22        5     2075    147.4    547.8   1384.2   435.00      0.0    145.9      1.5      2.0      0.0    126.7       55    232.8    182.1       75     0.000     0.000     0.000     0.000      107        0       42       25        7       17       18    11.840       50     40.0    4.736   -9.900     1.32    0.000    0.000       11        9     2075  Maize_Short_Soroca_22May_NonOptimum_26_MOHC.PRM
  Tot(96)       22        5     2076     86.3    712.4   1672.1   434.00      0.0     85.7      0.6      0.4      0.0    115.7       25    169.7    137.5       71     0.000     0.000     0.000     0.000       86        0       42       25        1       32       20     6.839       28     23.1    1.582   -9.900     0.56    0.000    0.000       11        9     2076  Maize_Short_Soroca_22May_NonOptimum_26_MOHC.PRM
  Tot(97)       22        5     2077     74.2    724.7   1559.4   433.00      0.0     73.3      0.9      0.0      0.0    110.7       21    153.2    125.7       78     0.000     0.000     0.000     0.000       88        0       42       25        3       39       17     5.832       24     25.2    1.470   -9.900     0.56    0.000    0.000       11        9     2077  Maize_Short_Soroca_22May_NonOptimum_26_MOHC.PRM
  Tot(98)       22        5     2078    145.7    625.6   1619.0   433.00      0.0    145.6      0.1      0.0      0.0    150.3       47    215.5    170.1       75     0.000     0.000     0.000     0.000       98        0       42       25        1       19       20    10.285       42     34.3    3.527   -9.900     0.98    0.000    0.000       11        9     2078  Maize_Short_Soroca_22May_NonOptimum_26_MOHC.PRM
  Tot(99)       22        5     2079    144.5    601.6   1465.4   432.00      0.0    138.8      5.7      9.2      0.0    114.9       37    196.8    155.7       73     0.000     0.000     0.000     0.000       92        0       42       25        6       23       21     8.637       36     28.6    2.470   -9.900     0.82    0.000    0.000       11        9     2079  Maize_Short_Soroca_22May_NonOptimum_26_MOHC.PRM
 Tot(100)       22        5     2080    120.3    633.3   1520.2   432.00      0.0    119.4      0.9      1.3      0.0    131.8       37    179.3    143.1       71     0.000     0.000     0.000     0.000       88        0       42       25        2       28       21     7.530       31     24.7    1.859   -9.900     0.64    0.000    0.000       11        9     2080  Maize_Short_Soroca_22May_NonOptimum_26_MOHC.PRM
 Tot(101)       22        5     2081     95.8    713.4   1701.4   431.00      0.0     88.3      7.5     10.6      0.0    107.6       23    158.1    128.3       71     0.000     0.000     0.000     0.000       86        0       42       25        1       35       20     5.951       24     20.9    1.241   -9.900     0.48    0.000    0.000       11        9     2081  Maize_Short_Soroca_22May_NonOptimum_26_MOHC.PRM
 Tot(102)       22        5     2082     54.7    743.8   1704.5   431.00      0.0     54.7      0.0      0.0      0.0     91.7       19    163.5    132.0       70     0.000     0.000     0.000     0.000       86        0       42       25        0       33       21     6.545       27     19.7    1.289   -9.900     0.51    0.000    0.000       11        9     2082  Maize_Short_Soroca_22May_NonOptimum_26_MOHC.PRM
 Tot(103)       22        5     2083    141.4    638.2   1511.7   430.00      0.0    130.0     11.4     11.2      0.0    133.5       33    167.5    135.0       73     0.000     0.000     0.000     0.000       93        0       42       25        4       33       19     6.674       27     29.1    1.941   -9.900     0.68    0.000    0.000       11        9     2083  Maize_Short_Soroca_22May_NonOptimum_26_MOHC.PRM
 Tot(104)       22        5     2084    115.0    680.0   1632.9   429.00      0.0    114.9      0.1      0.0      0.0    139.3       35    175.8    140.8       70     0.000     0.000     0.000     0.000       85        0       42       25        3       30       22     6.946       29     21.5    1.496   -9.900     0.49    0.000    0.000       11        9     2084  Maize_Short_Soroca_22May_NonOptimum_26_MOHC.PRM
 Tot(105)       22        5     2085     81.7    655.3   1618.3   429.00      0.0     81.4      0.3      0.0      0.0    108.4       27    177.0    142.5       76     0.000     0.000     0.000     0.000       90        0       42       25        2       33       19     7.509       31     27.0    2.027   -9.900     0.72    0.000    0.000       11        9     2085  Maize_Short_Soroca_22May_NonOptimum_26_MOHC.PRM
 Tot(106)       22        5     2086    155.2    621.7   1515.5   428.00      0.0    154.4      0.8      0.0      0.0    119.3       40    237.9    187.2       74     0.000     0.000     0.000     0.000      107        0       42       25        3       17       19    11.055       46     39.5    4.370   -9.900     1.22    0.000    0.000       11        9     2086  Maize_Short_Soroca_22May_NonOptimum_26_MOHC.PRM
 Tot(107)       22        5     2087    160.7    646.8   1640.1   428.00      0.0    157.8      2.9      0.0      0.0    110.3       31    254.2    201.3       83     0.000     0.000     0.000     0.000      107        0       42       25        1       18       12    12.276       51     40.0    4.915   -9.900     1.35    0.000    0.000       11        9     2087  Maize_Short_Soroca_22May_NonOptimum_26_MOHC.PRM
 Tot(108)       22        5     2088    234.3    564.3   1427.2   427.00      0.0    214.9     19.4     13.1      0.0    139.2       58    249.0    195.2       78     0.000     0.000     0.000     0.000      107        0       42       25        6       14       13    12.036       51     40.1    4.831   -9.900     1.24    0.000    0.000       11        9     2088  Maize_Short_Soroca_22May_NonOptimum_26_MOHC.PRM
 Tot(109)       22        5     2089    234.9    568.6   1518.4   427.00      0.0    230.1      4.8      1.4      0.0    171.2       65    272.7    213.3       87     0.000     0.000     0.000     0.000      107        0       42       25        4        8       12    14.316       61     40.1    5.742   -9.900     1.29    0.000    0.000       11        9     2089  Maize_Short_Soroca_22May_NonOptimum_26_MOHC.PRM
 Tot(110)       22        5     2090    115.9    719.3   1699.5   426.00      0.0    115.9      0.0      0.0      0.0    142.0       29    167.8    136.3       76     0.000     0.000     0.000     0.000       89        0       42       25        1       35       19     6.873       28     26.1    1.792   -9.900     0.60    0.000    0.000       11        9     2090  Maize_Short_Soroca_22May_NonOptimum_26_MOHC.PRM
 Tot(111)       22        5     2091    224.5    515.9   1396.4   425.00      0.0    218.3      6.2      0.0      0.0    101.6       38    265.5    206.8      100     0.000     0.000     0.000     0.000      107        0       42       25        7       12        0    16.113       71     40.3    6.487   -9.900     1.77    0.000    0.000       11        9     2091  Maize_Short_Soroca_22May_NonOptimum_26_MOHC.PRM
 Tot(112)       22        5     2092     89.5    605.4   1502.0   425.00      0.0     88.2      1.3      1.5      0.0     96.6       33    209.0    165.1       73     0.000     0.000     0.000     0.000       97        0       42       25        5       16       21     9.852       41     33.2    3.272   -9.900     1.08    0.000    0.000       11        9     2092  Maize_Short_Soroca_22May_NonOptimum_26_MOHC.PRM
 Tot(113)       22        5     2093    165.9    618.5   1536.2   424.00      0.0    159.3      6.6      0.8      0.0    146.9       43    181.4    144.1       72     0.000     0.000     0.000     0.000       90        0       42       25        2       26       21     8.039       33     26.6    2.142   -9.900     0.72    0.000    0.000       11        9     2093  Maize_Short_Soroca_22May_NonOptimum_26_MOHC.PRM
 Tot(114)       22        5     2094    198.5    595.6   1452.8   424.00      0.0    156.7     41.8      0.0      0.0    102.9       32    193.7    153.5       73     0.000     0.000     0.000     0.000       95        0       42       25        3       24       21     8.983       38     31.5    2.830   -9.900     1.00    0.000    0.000       11        9     2094  Maize_Short_Soroca_22May_NonOptimum_26_MOHC.PRM
 Tot(115)       22        5     2095    112.8    695.5   1578.9   423.00      0.0    112.1      0.7      0.0      0.0    113.1       28    177.5    141.7       69     0.000     0.000     0.000     0.000       86        0       42       25        4       29       22     7.002       29     22.5    1.576   -9.900     0.55    0.000    0.000       11        9     2095  Maize_Short_Soroca_22May_NonOptimum_26_MOHC.PRM
 Tot(116)       22        5     2096    120.0    666.8   1659.8   423.00      0.0    118.6      1.4      0.0      0.0    139.4       31    174.0    141.2       78     0.000     0.000     0.000     0.000       97        0       42       25        1       34       17     7.926       32     34.4    2.723   -9.900     0.91    0.000    0.000       11        9     2096  Maize_Short_Soroca_22May_NonOptimum_26_MOHC.PRM
 Tot(117)       22        5     2097    156.8    569.5   1525.5   422.00      0.0    150.4      6.4     18.0      0.0    114.7       46    241.2    188.7       77     0.000     0.000     0.000     0.000      104        0       42       25        4       10       20    11.689       48     38.8    4.535   -9.900     1.28    0.000    0.000       11        9     2097  Maize_Short_Soroca_22May_NonOptimum_26_MOHC.PRM
 Tot(118)       22        5     2098     78.8    616.8   1424.8   422.00      0.0     78.0      0.8      3.1      0.0     97.2       28    196.7    157.0       74     0.000     0.000     0.000     0.000      101        0       42       25        4       24       21     9.590       40     37.2    3.567   -9.900     1.24    0.000    0.000       11        9     2098  Maize_Short_Soroca_22May_NonOptimum_26_MOHC.PRM
 Tot(119)       22        5     2099     47.7    788.6   1685.3   421.00      0.0     47.7      0.0      0.0      0.0     85.0       14    146.0    120.3       77     0.000     0.000     0.000     0.000       86        0       42       25        3       41       18     5.180       21     22.1    1.146   -9.900     0.51    0.000    0.000       11        9     2099  Maize_Short_Soroca_22May_NonOptimum_26_MOHC.PRM
