AquaCrop 7.0 (August 2022) - Output created on (date) : 23-11-2022   at (time) : 14:31:59

    RunNr     Day1   Month1    Year1     Rain      ETo       GD     CO2      Irri   Infilt   Runoff    Drain   Upflow        E     E/Ex       Tr      TrW   Tr/Trx    SaltIn   SaltOut    SaltUp  SaltProf     Cycle   SaltStr  FertStr  WeedStr  TempStr   ExpStr   StoStr  BioMass  Brelative   HI    Y(dry)  Y(fresh)    WPet      Bin     Bout     DayN   MonthN    YearN
                                           mm       mm  degC.day    ppm        mm       mm       mm       mm       mm       mm        %       mm       mm        %    ton/ha    ton/ha    ton/ha    ton/ha      days       %        %        %        %        %        %    ton/ha        %       %    ton/ha   ton/ha    kg/m3   ton/ha   ton/ha
   Tot(1)       22        5     1981    240.8    460.2   1219.9   340.11      0.0    210.3     30.5     45.0      0.0    104.1       48    244.4    243.5      100     0.000     0.000     0.000     0.000      107        0        0        0       13        3        0    19.498       95     40.1    7.815   -9.900     2.24    0.000    0.000       11        9     1981  Maize_Short_Soroca_22May_Optimum_26_NCC.PRM
   Tot(2)       22        5     1982    274.6    445.7   1204.3   341.22      0.0    238.9     35.7     42.9      0.0    128.1       64    250.3    250.0      100     0.000     0.000     0.000     0.000      107        0        0        0       11        2        0    20.705       96     40.0    8.291   -9.900     2.19    0.000    0.000       11        9     1982  Maize_Short_Soroca_22May_Optimum_26_NCC.PRM
   Tot(3)       22        5     1983    219.2    435.3   1214.1   342.84      0.0    214.3      4.9      0.1      0.0    106.4       56    242.1    241.1      100     0.000     0.000     0.000     0.000      107        0        0        0       11        1        0    20.404       97     40.0    8.162   -9.900     2.34    0.000    0.000       11        9     1983  Maize_Short_Soroca_22May_Optimum_26_NCC.PRM
   Tot(4)       22        5     1984    324.1    420.3   1075.3   344.40      0.0    305.9     18.2     19.5      0.0    155.4       90    234.9    236.4      100     0.000     0.000     0.000     0.000      107        0        0        0       18        0        0    19.737       98     40.0    7.895   -9.900     2.02    0.000    0.000       11        9     1984  Maize_Short_Soroca_22May_Optimum_26_NCC.PRM
   Tot(5)       22        5     1985    381.4    448.7   1131.4   345.87      0.0    343.1     38.3     63.4      0.0    143.5       80    261.4    261.9      100     0.000     0.000     0.000     0.000      107        0        0        0       17        1        0    19.769       97     40.1    7.930   -9.900     1.96    0.000    0.000       11        9     1985  Maize_Short_Soroca_22May_Optimum_26_NCC.PRM
   Tot(6)       22        5     1986    162.2    512.9   1240.3   347.19      0.0    161.8      0.4      0.0      0.0    109.8       46    253.4    252.8       94     0.000     0.000     0.000     0.000      107        0        0        0       13        7        5    18.052       88     40.1    7.241   -9.900     1.99    0.000    0.000       11        9     1986  Maize_Short_Soroca_22May_Optimum_26_NCC.PRM
   Tot(7)       22        5     1987    256.6    456.5   1133.8   348.98      0.0    246.2     10.4     15.1      0.0    136.1       68    245.6    245.3      100     0.000     0.000     0.000     0.000      107        0        0        0       17       12        0    18.730       94     40.5    7.588   -9.900     1.99    0.000    0.000       11        9     1987  Maize_Short_Soroca_22May_Optimum_26_NCC.PRM
   Tot(8)       22        5     1988    324.3    426.4   1235.2   351.45      0.0    304.9     19.4     38.9      0.0    140.6       84    261.7    262.8      100     0.000     0.000     0.000     0.000      107        0        0        0       12        1        0    20.589       98     40.1    8.252   -9.900     2.05    0.000    0.000       11        9     1988  Maize_Short_Soroca_22May_Optimum_26_NCC.PRM
   Tot(9)       22        5     1989    398.6    434.0   1151.2   352.89      0.0    334.0     64.6     24.5      0.0    114.7       60    245.6    246.2      100     0.000     0.000     0.000     0.000      107        0        0        0       14        4        0    19.987       96     40.1    8.023   -9.900     2.23    0.000    0.000       11        9     1989  Maize_Short_Soroca_22May_Optimum_26_NCC.PRM
  Tot(10)       22        5     1990    193.6    463.7   1109.4   354.16      0.0    190.8      2.8      6.4      0.0    145.0       75    243.2    243.1       92     0.000     0.000     0.000     0.000      107        0        0        0       17        6        8    18.291       87     40.2    7.347   -9.900     1.89    0.000    0.000       11        9     1990  Maize_Short_Soroca_22May_Optimum_26_NCC.PRM
  Tot(11)       22        5     1991    419.0    410.7   1159.5   355.48      0.0    366.8     52.2     52.7      0.0    138.5       81    241.6    240.6      100     0.000     0.000     0.000     0.000      107        0        0        0       14        1        0    20.834       98     40.0    8.339   -9.900     2.19    0.000    0.000       11        9     1991  Maize_Short_Soroca_22May_Optimum_26_NCC.PRM
  Tot(12)       22        5     1992    208.9    511.5   1268.1   356.27      0.0    203.2      5.7     14.5      0.0    147.2       71    241.9    243.0       80     0.000     0.000     0.000     0.000      107        0        0        0       11       13       14    15.503       70     39.8    6.174   -9.900     1.59    0.000    0.000       11        9     1992  Maize_Short_Soroca_22May_Optimum_26_NCC.PRM
  Tot(13)       22        5     1993    240.0    450.5   1102.8   356.95      0.0    233.7      6.3      5.7      0.0    119.2       61    243.7    242.4      100     0.000     0.000     0.000     0.000      107        0        0        0       17        2        0    19.030       97     40.1    7.623   -9.900     2.10    0.000    0.000       11        9     1993  Maize_Short_Soroca_22May_Optimum_26_NCC.PRM
  Tot(14)       22        5     1994    254.5    502.2   1248.0   358.63      0.0    222.8     31.7     20.8      0.0    124.3       56    248.7    248.7       87     0.000     0.000     0.000     0.000      107        0        0        0       12       13        8    17.227       76     40.5    6.973   -9.900     1.87    0.000    0.000       11        9     1994  Maize_Short_Soroca_22May_Optimum_26_NCC.PRM
  Tot(15)       22        5     1995    376.0    484.7   1320.2   360.62      0.0    320.5     55.5     21.5      0.0    109.4       50    278.5    278.2      100     0.000     0.000     0.000     0.000      107        0        0        0        6        4        0    21.120       95     40.1    8.460   -9.900     2.18    0.000    0.000       11        9     1995  Maize_Short_Soroca_22May_Optimum_26_NCC.PRM
  Tot(16)       22        5     1996    300.9    473.4   1194.7   362.37      0.0    280.7     20.2     14.7      0.0     98.5       42    244.4    246.0      100     0.000     0.000     0.000     0.000      107        0        0        0       13        3        0    19.712       95     40.0    7.885   -9.900     2.30    0.000    0.000       11        9     1996  Maize_Short_Soroca_22May_Optimum_26_NCC.PRM
  Tot(17)       22        5     1997    330.4    417.9   1118.9   363.47      0.0    311.2     19.2     16.2      0.0    121.6       65    228.4    228.1      100     0.000     0.000     0.000     0.000      107        0        0        0       15        1        0    20.623       97     40.0    8.249   -9.900     2.36    0.000    0.000       11        9     1997  Maize_Short_Soroca_22May_Optimum_26_NCC.PRM
  Tot(18)       22        5     1998    279.4    435.7   1188.1   366.50      0.0    261.5     17.9     17.9      0.0    117.5       66    246.1    244.0      100     0.000     0.000     0.000     0.000      107        0        0        0       15        1        0    19.204       97     40.0    7.683   -9.900     2.11    0.000    0.000       11        9     1998  Maize_Short_Soroca_22May_Optimum_26_NCC.PRM
  Tot(19)       22        5     1999    167.8    514.8   1406.8   368.14      0.0    167.8      0.0      0.0      0.0    106.3       41    257.4    258.5       94     0.000     0.000     0.000     0.000      107        0        0        0        3       16        4    19.349       84     40.5    7.845   -9.900     2.16    0.000    0.000       11        9     1999  Maize_Short_Soroca_22May_Optimum_26_NCC.PRM
  Tot(20)       22        5     2000    266.5    494.1   1237.4   369.41      0.0    256.4     10.1     11.7      0.0    112.2       48    270.3    269.9      100     0.000     0.000     0.000     0.000      107        0        0        0       12        2        0    20.703       95     40.0    8.282   -9.900     2.17    0.000    0.000       11        9     2000  Maize_Short_Soroca_22May_Optimum_26_NCC.PRM
  Tot(21)       22        5     2001    315.8    471.8   1256.9   371.07      0.0    291.7     24.1     19.9      0.0    135.7       74    285.6    287.3       96     0.000     0.000     0.000     0.000      107        0        0        0       13        1        4    20.484       92     40.0    8.190   -9.900     1.94    0.000    0.000       11        9     2001  Maize_Short_Soroca_22May_Optimum_26_NCC.PRM
  Tot(22)       22        5     2002    383.6    500.9   1374.8   373.16      0.0    349.5     34.1      2.8      0.0    144.8       64    295.6    295.2      100     0.000     0.000     0.000     0.000      107        0        0        0        7       10        0    21.668       93     40.1    8.690   -9.900     1.97    0.000    0.000       11        9     2002  Maize_Short_Soroca_22May_Optimum_26_NCC.PRM
  Tot(23)       22        5     2003    341.0    524.1   1271.7   375.80      0.0    288.4     52.6     47.8      0.0    102.3       39    266.2    265.0      100     0.000     0.000     0.000     0.000      107        0        0        0       11        4        0    20.090       94     40.0    8.038   -9.900     2.18    0.000    0.000       11        9     2003  Maize_Short_Soroca_22May_Optimum_26_NCC.PRM
  Tot(24)       22        5     2004    246.8    480.3   1170.9   377.49      0.0    225.9     20.9      0.0      0.0     76.1       31    243.8    245.6      100     0.000     0.000     0.000     0.000      107        0        0        0       12        7        0    20.107       93     40.1    8.065   -9.900     2.52    0.000    0.000       11        9     2004  Maize_Short_Soroca_22May_Optimum_26_NCC.PRM
  Tot(25)       22        5     2005    191.9    472.0   1278.0   379.80      0.0    190.3      1.6      0.5      0.0    108.7       51    269.4    267.5       99     0.000     0.000     0.000     0.000      107        0        0        0        8        5        1    21.696       95     40.2    8.724   -9.900     2.31    0.000    0.000       11        9     2005  Maize_Short_Soroca_22May_Optimum_26_NCC.PRM
  Tot(26)       22        5     2006    297.5    485.6   1226.9   381.90      0.0    283.3     14.2     20.3      0.0    130.8       64    286.8    287.4       99     0.000     0.000     0.000     0.000      107        0        0        0       14       11        0    20.990       94     40.5    8.503   -9.900     2.04    0.000    0.000       11        9     2006  Maize_Short_Soroca_22May_Optimum_26_NCC.PRM
  Tot(27)       22        5     2007    171.9    576.2   1439.4   383.77      0.0    171.9      0.0      0.0      0.0    111.7       35    248.0    248.3       90     0.000     0.000     0.000     0.000      107        0        0        0        5       24        7    16.856       74     40.8    6.870   -9.900     1.91    0.000    0.000       11        9     2007  Maize_Short_Soroca_22May_Optimum_26_NCC.PRM
  Tot(28)       22        5     2008    348.1    533.3   1326.6   385.59      0.0    288.2     59.9      0.7      0.0    123.6       54    317.8    317.1      100     0.000     0.000     0.000     0.000      107        0        0        0        6        6        0    21.950       94     40.0    8.780   -9.900     1.99    0.000    0.000       11        9     2008  Maize_Short_Soroca_22May_Optimum_26_NCC.PRM
  Tot(29)       22        5     2009    203.0    548.8   1334.5   387.37      0.0    201.4      1.6      0.3      0.0    154.6       62    265.5    266.8       86     0.000     0.000     0.000     0.000      107        0        0        0        7        8       13    17.783       76     40.0    7.113   -9.900     1.69    0.000    0.000       11        9     2009  Maize_Short_Soroca_22May_Optimum_26_NCC.PRM
  Tot(30)       22        5     2010    347.1    480.7   1367.9   389.85      0.0    318.5     28.6     55.2      0.0    140.3       70    283.4    282.4       98     0.000     0.000     0.000     0.000      107        0        0        0        9        1        1    21.105       96     40.0    8.452   -9.900     2.00    0.000    0.000       11        9     2010  Maize_Short_Soroca_22May_Optimum_26_NCC.PRM
  Tot(31)       22        5     2011    182.7    539.3   1341.3   391.63      0.0    180.8      1.9      0.0      0.0    124.7       48    270.0    270.8       91     0.000     0.000     0.000     0.000      107        0        0        0        6        7        8    19.361       84     39.9    7.733   -9.900     1.96    0.000    0.000       11        9     2011  Maize_Short_Soroca_22May_Optimum_26_NCC.PRM
  Tot(32)       22        5     2012    126.3    606.4   1414.1   393.82      0.0    126.0      0.3      0.0      0.0    116.6       35    223.3    223.5       79     0.000     0.000     0.000     0.000      107        0        0        0        6       25       16    13.891       61     40.4    5.608   -9.900     1.65    0.000    0.000       11        9     2012  Maize_Short_Soroca_22May_Optimum_26_NCC.PRM
  Tot(33)       22        5     2013    245.3    495.7   1303.4   396.48      0.0    225.7     19.6     20.7      0.0    155.8       71    237.6    237.3       86     0.000     0.000     0.000     0.000      107        0        0        0        7        9        8    17.534       77     40.2    7.050   -9.900     1.79    0.000    0.000       11        9     2013  Maize_Short_Soroca_22May_Optimum_26_NCC.PRM
  Tot(34)       22        5     2014    253.7    516.6   1359.2   398.55      0.0    231.9     21.8     10.0      0.0    103.5       48    307.9    306.5       99     0.000     0.000     0.000     0.000      107        0        0        0        7        2        1    22.091       95     40.0    8.837   -9.900     2.15    0.000    0.000       11        9     2014  Maize_Short_Soroca_22May_Optimum_26_NCC.PRM
  Tot(35)       22        5     2015     64.6    613.4   1397.9   401.00      0.0     64.6      0.0      0.0      0.0     90.2       24    179.8    182.0       77     0.000     0.000     0.000     0.000       97        0        0        0        5       28       19    10.585       46     34.0    3.601   -9.900     1.39    0.000    0.000       11        9     2015  Maize_Short_Soroca_22May_Optimum_26_NCC.PRM
  Tot(36)       22        5     2016    223.5    541.1   1411.6   403.00      0.0    221.3      2.2      0.5      0.0    172.0       75    271.0    270.3       84     0.000     0.000     0.000     0.000      107        0        0        0        5       16       13    17.853       75     40.4    7.212   -9.900     1.63    0.000    0.000       11        9     2016  Maize_Short_Soroca_22May_Optimum_26_NCC.PRM
  Tot(37)       22        5     2017    190.2    557.9   1350.9   405.00      0.0    188.7      1.5      0.3      0.0    148.1       57    258.0    258.1       86     0.000     0.000     0.000     0.000      107        0        0        0        6       12       13    17.375       75     40.1    6.968   -9.900     1.72    0.000    0.000       11        9     2017  Maize_Short_Soroca_22May_Optimum_26_NCC.PRM
  Tot(38)       22        5     2018    247.0    517.0   1451.6   408.00      0.0    234.6     12.4      7.5      0.0    111.3       46    293.2    292.8       99     0.000     0.000     0.000     0.000      107        0        0        0        4        3        1    22.331       94     40.0    8.931   -9.900     2.21    0.000    0.000       11        9     2018  Maize_Short_Soroca_22May_Optimum_26_NCC.PRM
  Tot(39)       22        5     2019    224.9    551.2   1441.3   410.00      0.0    207.2     17.7     24.8      0.0    162.1       65    244.6    245.3       82     0.000     0.000     0.000     0.000      107        0        0        0        3        9       16    17.121       72     39.6    6.786   -9.900     1.67    0.000    0.000       11        9     2019  Maize_Short_Soroca_22May_Optimum_26_NCC.PRM
  Tot(40)       22        5     2020    217.5    471.5   1160.0   412.00      0.0    211.1      6.4      9.2      0.0    141.9       68    248.4    246.1       98     0.000     0.000     0.000     0.000      107        0        0        0       13        4        1    20.368       95     40.1    8.166   -9.900     2.09    0.000    0.000       11        9     2020  Maize_Short_Soroca_22May_Optimum_26_NCC.PRM
  Tot(41)       22        5     2021    176.2    503.8   1065.8   414.00      0.0    153.4     22.8     23.6      0.0    130.6       62    219.3    221.8       81     0.000     0.000     0.000     0.000      107        0        0        0       21        6       18    14.961       70     39.5    5.906   -9.900     1.69    0.000    0.000       11        9     2021  Maize_Short_Soroca_22May_Optimum_26_NCC.PRM
  Tot(42)       22        5     2022    167.4    607.8   1428.7   417.00      0.0    163.5      3.9      9.2      0.0    151.1       47    214.5    214.3       76     0.000     0.000     0.000     0.000      107        0        0        0        4       24       20    12.610       53     40.2    5.066   -9.900     1.39    0.000    0.000       11        9     2022  Maize_Short_Soroca_22May_Optimum_26_NCC.PRM
  Tot(43)       22        5     2023    208.6    498.1   1197.1   419.00      0.0    202.3      6.3     15.8      0.0    144.4       70    250.4    250.1       89     0.000     0.000     0.000     0.000      107        0        0        0       11       13        9    17.878       82     40.3    7.197   -9.900     1.82    0.000    0.000       11        9     2023  Maize_Short_Soroca_22May_Optimum_26_NCC.PRM
  Tot(44)       22        5     2024     91.5    526.5   1151.6   421.00      0.0     89.9      1.6      1.3      0.0    109.1       44    198.6    199.1       79     0.000     0.000     0.000     0.000      102        0        0        0       16       15       19    13.428       60     38.6    5.183   -9.900     1.69    0.000    0.000       11        9     2024  Maize_Short_Soroca_22May_Optimum_26_NCC.PRM
  Tot(45)       22        5     2025    226.4    486.6   1206.9   423.00      0.0    211.9     14.5     36.8      0.0    133.5       72    246.3    244.9       84     0.000     0.000     0.000     0.000      107        0        0        0       14        8       11    17.039       74     39.8    6.782   -9.900     1.79    0.000    0.000       11        9     2025  Maize_Short_Soroca_22May_Optimum_26_NCC.PRM
  Tot(46)       22        5     2026    198.8    516.3   1117.7   424.00      0.0    194.8      4.0      2.9      0.0    152.2       69    232.3    232.8       83     0.000     0.000     0.000     0.000      107        0        0        0       17       10       10    15.765       75     40.1    6.317   -9.900     1.64    0.000    0.000       11        9     2026  Maize_Short_Soroca_22May_Optimum_26_NCC.PRM
  Tot(47)       22        5     2027    208.4    566.8   1386.8   426.00      0.0    208.4      0.0      0.0      0.0    176.3       68    250.6    251.3       82     0.000     0.000     0.000     0.000      107        0        0        0        5       14       17    15.657       66     39.7    6.211   -9.900     1.46    0.000    0.000       11        9     2027  Maize_Short_Soroca_22May_Optimum_26_NCC.PRM
  Tot(48)       22        5     2028    183.3    551.2   1300.6   428.00      0.0    182.6      0.7      0.0      0.0    105.2       43    294.8    294.3       91     0.000     0.000     0.000     0.000      107        0        0        0       10       12        7    20.119       84     40.2    8.080   -9.900     2.02    0.000    0.000       11        9     2028  Maize_Short_Soroca_22May_Optimum_26_NCC.PRM
  Tot(49)       22        5     2029    277.2    422.4    950.0   429.00      0.0    242.4     34.8     47.4      0.0    124.1       77    236.3    236.0      100     0.000     0.000     0.000     0.000      107        0        0        0       24        0        0    19.607       97     40.0    7.846   -9.900     2.18    0.000    0.000       11        9     2029  Maize_Short_Soroca_22May_Optimum_26_NCC.PRM
  Tot(50)       22        5     2030    191.1    579.6   1298.5   431.00      0.0    183.5      7.6      0.0      0.0    117.2       44    272.5    273.5       88     0.000     0.000     0.000     0.000      107        0        0        0       10        9       11    17.664       78     39.7    7.014   -9.900     1.80    0.000    0.000       11        9     2030  Maize_Short_Soroca_22May_Optimum_26_NCC.PRM
  Tot(51)       22        5     2031    102.0    600.5   1385.3   432.00      0.0    101.9      0.1      0.0      0.0    118.0       37    199.9    199.9       76     0.000     0.000     0.000     0.000       97        0        0        0        6       22       20    12.048       50     33.8    4.071   -9.900     1.29    0.000    0.000       11        9     2031  Maize_Short_Soroca_22May_Optimum_26_NCC.PRM
  Tot(52)       22        5     2032    150.6    515.6   1259.3   433.00      0.0    148.5      2.1      2.1      0.0    120.9       58    247.7    247.4       83     0.000     0.000     0.000     0.000      107        0        0        0       10        4       14    17.529       76     39.5    6.927   -9.900     1.88    0.000    0.000       11        9     2032  Maize_Short_Soroca_22May_Optimum_26_NCC.PRM
  Tot(53)       22        5     2033    149.4    504.6   1187.4   435.00      0.0    149.0      0.4      0.0      0.0    116.1       56    239.0    239.1       83     0.000     0.000     0.000     0.000      107        0        0        0       14       10       13    16.744       75     40.2    6.736   -9.900     1.90    0.000    0.000       11        9     2033  Maize_Short_Soroca_22May_Optimum_26_NCC.PRM
  Tot(54)       22        5     2034    282.7    485.6   1090.4   436.00      0.0    250.7     32.0     44.0      0.0    146.8       77    252.5    252.2       93     0.000     0.000     0.000     0.000      107        0        0        0       19        4        5    18.115       89     40.2    7.289   -9.900     1.83    0.000    0.000       11        9     2034  Maize_Short_Soroca_22May_Optimum_26_NCC.PRM
  Tot(55)       22        5     2035    158.8    537.4   1196.2   437.00      0.0    157.2      1.6      0.0      0.0    109.1       47    256.5    257.1       87     0.000     0.000     0.000     0.000      107        0        0        0       15        5       12    17.383       79     39.7    6.900   -9.900     1.89    0.000    0.000       11        9     2035  Maize_Short_Soroca_22May_Optimum_26_NCC.PRM
  Tot(56)       22        5     2036    218.3    457.2   1052.2   438.00      0.0    207.3     11.0     21.9      0.0    118.5       64    250.8    250.8       99     0.000     0.000     0.000     0.000      107        0        0        0       21        2        1    19.949       96     40.1    7.998   -9.900     2.17    0.000    0.000       11        9     2036  Maize_Short_Soroca_22May_Optimum_26_NCC.PRM
  Tot(57)       22        5     2037    134.3    506.4   1254.2   438.00      0.0    130.6      3.7      7.2      0.0    117.3       52    226.3    226.2       83     0.000     0.000     0.000     0.000      107        0        0        0        7        9       16    16.742       72     39.7    6.639   -9.900     1.93    0.000    0.000       11        9     2037  Maize_Short_Soroca_22May_Optimum_26_NCC.PRM
  Tot(58)       22        5     2038    157.4    587.7   1369.0   439.00      0.0    154.8      2.6      0.7      0.0    147.4       48    222.4    222.5       80     0.000     0.000     0.000     0.000      103        0        0        0        5       14       18    14.219       63     39.8    5.657   -9.900     1.54    0.000    0.000       11        9     2038  Maize_Short_Soroca_22May_Optimum_26_NCC.PRM
  Tot(59)       22        5     2039    173.1    466.2   1082.5   440.00      0.0    171.5      1.6      0.0      0.0    107.9       51    237.0    235.7       99     0.000     0.000     0.000     0.000      107        0        0        0       18        6        0    18.893       94     40.3    7.614   -9.900     2.21    0.000    0.000       11        9     2039  Maize_Short_Soroca_22May_Optimum_26_NCC.PRM
  Tot(60)       22        5     2040    104.3    636.2   1429.4   440.00      0.0    104.1      0.2      0.0      0.0    123.7       37    197.0    198.3       72     0.000     0.000     0.000     0.000       94        0        0        0        6       21       21    11.233       47     30.7    3.451   -9.900     1.09    0.000    0.000       11        9     2040  Maize_Short_Soroca_22May_Optimum_26_NCC.PRM
  Tot(61)       22        5     2041    278.6    406.6   1037.6   441.00      0.0    272.3      6.3     12.4      0.0    139.2       83    225.5    224.6      100     0.000     0.000     0.000     0.000      107        0        0        0       19        1        0    20.660       97     40.1    8.276   -9.900     2.27    0.000    0.000       11        9     2041  Maize_Short_Soroca_22May_Optimum_26_NCC.PRM
  Tot(62)       22        5     2042    109.9    552.7   1283.8   441.00      0.0    109.9      0.0      0.0      0.0    111.4       39    187.1    188.1       75     0.000     0.000     0.000     0.000       94        0        0        0        9       24       19    11.465       50     31.1    3.565   -9.900     1.24    0.000    0.000       11        9     2042  Maize_Short_Soroca_22May_Optimum_26_NCC.PRM
  Tot(63)       22        5     2043    174.5    479.3   1144.5   441.00      0.0    161.3     13.2     19.8      0.0    122.0       64    240.5    239.8       86     0.000     0.000     0.000     0.000      107        0        0        0       12        9       10    18.880       82     40.1    7.574   -9.900     2.09    0.000    0.000       11        9     2043  Maize_Short_Soroca_22May_Optimum_26_NCC.PRM
  Tot(64)       22        5     2044    162.0    537.4   1227.1   442.00      0.0    153.9      8.1     21.3      0.0    136.5       60    217.3    217.7       76     0.000     0.000     0.000     0.000      107        0        0        0       13       18       21    14.247       63     39.8    5.677   -9.900     1.60    0.000    0.000       11        9     2044  Maize_Short_Soroca_22May_Optimum_26_NCC.PRM
  Tot(65)       22        5     2045    149.3    511.9   1184.8   442.00      0.0    138.7     10.6     24.8      0.0    132.3       55    198.6    198.9       80     0.000     0.000     0.000     0.000      103        0        0        0       11       15       19    14.084       63     39.8    5.608   -9.900     1.72    0.000    0.000       11        9     2045  Maize_Short_Soroca_22May_Optimum_26_NCC.PRM
  Tot(66)       22        5     2046    129.1    605.9   1403.8   442.00      0.0    127.7      1.4      1.9      0.0    142.4       46    197.4    197.4       74     0.000     0.000     0.000     0.000       94        0        0        0        3       19       20    11.919       50     30.9    3.678   -9.900     1.10    0.000    0.000       11        9     2046  Maize_Short_Soroca_22May_Optimum_26_NCC.PRM
  Tot(67)       22        5     2047    242.6    426.3   1056.6   442.00      0.0    224.8     17.8     26.4      0.0    148.0       84    228.4    227.9       99     0.000     0.000     0.000     0.000      107        0        0        0       17        1        1    20.327       97     40.1    8.147   -9.900     2.16    0.000    0.000       11        9     2047  Maize_Short_Soroca_22May_Optimum_26_NCC.PRM
  Tot(68)       22        5     2048    171.4    495.1   1207.8   442.00      0.0    168.0      3.4      0.0      0.0    121.8       50    231.8    230.3       91     0.000     0.000     0.000     0.000      107        0        0        0       12       14        4    17.885       84     40.6    7.265   -9.900     2.05    0.000    0.000       11        9     2048  Maize_Short_Soroca_22May_Optimum_26_NCC.PRM
  Tot(69)       22        5     2049    203.6    518.8   1236.4   443.00      0.0    191.4     12.2     14.5      0.0    140.5       56    223.6    224.5       84     0.000     0.000     0.000     0.000      107        0        0        0        9       22       10    16.551       73     40.6    6.721   -9.900     1.85    0.000    0.000       11        9     2049  Maize_Short_Soroca_22May_Optimum_26_NCC.PRM
  Tot(70)       22        5     2050     82.2    550.9   1292.6   443.00      0.0     82.2      0.0      0.0      0.0    105.4       36    181.7    182.8       75     0.000     0.000     0.000     0.000       98        0        0        0        9       21       19    11.933       50     34.9    4.168   -9.900     1.49    0.000    0.000       11        9     2050  Maize_Short_Soroca_22May_Optimum_26_NCC.PRM
  Tot(71)       22        5     2051    155.6    512.8   1254.6   443.00      0.0    150.6      5.0      8.1      0.0    132.7       57    218.2    218.1       81     0.000     0.000     0.000     0.000      107        0        0        0       10       15       16    15.012       66     40.3    6.053   -9.900     1.72    0.000    0.000       11        9     2051  Maize_Short_Soroca_22May_Optimum_26_NCC.PRM
  Tot(72)       22        5     2052    326.7    439.8   1082.3   443.00      0.0    285.6     41.1     35.0      0.0    119.1       59    222.1    220.9      100     0.000     0.000     0.000     0.000      107        0        0        0       20        3        0    19.683       96     40.2    7.908   -9.900     2.32    0.000    0.000       11        9     2052  Maize_Short_Soroca_22May_Optimum_26_NCC.PRM
  Tot(73)       22        5     2053    202.2    476.2   1204.6   443.00      0.0    195.5      6.7      9.4      0.0    139.7       73    237.6    237.2       86     0.000     0.000     0.000     0.000      107        0        0        0       11        9        9    17.723       78     40.2    7.118   -9.900     1.89    0.000    0.000       11        9     2053  Maize_Short_Soroca_22May_Optimum_26_NCC.PRM
  Tot(74)       22        5     2054    109.3    604.7   1305.7   443.00      0.0    108.1      1.2      0.0      0.0    134.4       39    178.5    180.1       75     0.000     0.000     0.000     0.000       94        0        0        0        6       25       19    10.634       46     31.0    3.301   -9.900     1.07    0.000    0.000       11        9     2054  Maize_Short_Soroca_22May_Optimum_26_NCC.PRM
  Tot(75)       22        5     2055    136.6    529.1   1248.4   443.00      0.0    136.3      0.3      0.0      0.0    114.4       50    225.5    225.2       79     0.000     0.000     0.000     0.000      107        0        0        0       12       13       17    15.071       66     40.0    6.029   -9.900     1.77    0.000    0.000       11        9     2055  Maize_Short_Soroca_22May_Optimum_26_NCC.PRM
  Tot(76)       22        5     2056    247.2    520.4   1258.2   442.00      0.0    242.4      4.8      0.2      0.0    134.4       60    276.3    275.6       92     0.000     0.000     0.000     0.000      107        0        0        0       12        4        6    19.815       87     40.0    7.933   -9.900     1.93    0.000    0.000       11        9     2056  Maize_Short_Soroca_22May_Optimum_26_NCC.PRM
  Tot(77)       22        5     2057    300.9    481.8   1283.4   442.00      0.0    291.9      9.0      9.6      0.0    169.0       81    278.7    278.8      100     0.000     0.000     0.000     0.000      107        0        0        0        8        1        0    22.291       97     40.0    8.925   -9.900     1.99    0.000    0.000       11        9     2057  Maize_Short_Soroca_22May_Optimum_26_NCC.PRM
  Tot(78)       22        5     2058    164.2    538.8   1334.2   442.00      0.0    164.1      0.1      0.0      0.0    124.2       44    238.6    238.2       90     0.000     0.000     0.000     0.000      107        0        0        0        9       23        8    16.865       74     40.4    6.807   -9.900     1.88    0.000    0.000       11        9     2058  Maize_Short_Soroca_22May_Optimum_26_NCC.PRM
  Tot(79)       22        5     2059    166.5    509.3   1218.3   442.00      0.0    164.4      2.1      2.1      0.0    129.7       58    244.2    244.4       90     0.000     0.000     0.000     0.000      107        0        0        0       12       10        9    17.839       82     40.4    7.198   -9.900     1.92    0.000    0.000       11        9     2059  Maize_Short_Soroca_22May_Optimum_26_NCC.PRM
  Tot(80)       22        5     2060    128.3    507.5   1242.2   442.00      0.0    127.4      0.9      0.1      0.0    116.3       54    230.0    230.7       82     0.000     0.000     0.000     0.000      107        0        0        0       11       11       16    16.390       72     39.8    6.530   -9.900     1.89    0.000    0.000       11        9     2060  Maize_Short_Soroca_22May_Optimum_26_NCC.PRM
  Tot(81)       22        5     2061     97.3    582.1   1281.3   441.00      0.0     96.6      0.7      0.4      0.0    113.7       35    191.8    192.1       79     0.000     0.000     0.000     0.000      107        0        0        0        8       28       20    11.773       49     40.2    4.732   -9.900     1.55    0.000    0.000       11        9     2061  Maize_Short_Soroca_22May_Optimum_26_NCC.PRM
  Tot(82)       22        5     2062    143.5    556.8   1230.7   441.00      0.0    143.5      0.0      0.0      0.0    109.7       40    242.1    241.2       85     0.000     0.000     0.000     0.000      107        0        0        0       11       20       11    16.766       73     40.4    6.767   -9.900     1.92    0.000    0.000       11        9     2062  Maize_Short_Soroca_22May_Optimum_26_NCC.PRM
  Tot(83)       22        5     2063     73.1    631.4   1326.0   441.00      0.0     73.1      0.0      0.0      0.0     99.9       29    182.9    183.8       72     0.000     0.000     0.000     0.000       90        0        0        0       11       25       21    10.141       42     26.9    2.732   -9.900     0.99    0.000    0.000       11        9     2063  Maize_Short_Soroca_22May_Optimum_26_NCC.PRM
  Tot(84)       22        5     2064    176.4    533.6   1269.4   440.00      0.0    170.3      6.1      8.8      0.0    130.0       54    245.2    245.2       85     0.000     0.000     0.000     0.000      107        0        0        0       12       12       13    16.813       76     39.9    6.710   -9.900     1.79    0.000    0.000       11        9     2064  Maize_Short_Soroca_22May_Optimum_26_NCC.PRM
  Tot(85)       22        5     2065    124.9    551.9   1256.5   440.00      0.0    122.5      2.4      4.6      0.0    122.1       50    220.4    220.4       77     0.000     0.000     0.000     0.000      107        0        0        0        8        8       19    15.125       65     39.0    5.896   -9.900     1.72    0.000    0.000       11        9     2065  Maize_Short_Soroca_22May_Optimum_26_NCC.PRM
  Tot(86)       22        5     2066     91.3    633.5   1323.2   440.00      0.0     84.3      7.0      9.3      0.0     98.6       26    184.2    184.2       75     0.000     0.000     0.000     0.000       93        0        0        0        6       27       19    10.316       44     30.3    3.121   -9.900     1.12    0.000    0.000       11        9     2066  Maize_Short_Soroca_22May_Optimum_26_NCC.PRM
  Tot(87)       22        5     2067    144.1    511.0   1240.3   439.00      0.0    143.1      1.0      0.0      0.0    127.2       48    197.9    197.9       82     0.000     0.000     0.000     0.000      107        0        0        0       13       25       13    13.404       61     40.5    5.424   -9.900     1.67    0.000    0.000       11        9     2067  Maize_Short_Soroca_22May_Optimum_26_NCC.PRM
  Tot(88)       22        5     2068    287.0    502.0   1310.4   439.00      0.0    278.5      8.5     13.1      0.0    154.2       77    307.7    306.3       98     0.000     0.000     0.000     0.000      107        0        0        0        8        8        2    22.629       94     40.4    9.153   -9.900     1.98    0.000    0.000       11        9     2068  Maize_Short_Soroca_22May_Optimum_26_NCC.PRM
  Tot(89)       22        5     2069    168.8    574.8   1295.6   438.00      0.0    160.7      8.1     14.7      0.0    133.6       46    213.8    215.3       78     0.000     0.000     0.000     0.000      101        0        0        0       11       22       19    12.728       57     37.6    4.784   -9.900     1.40    0.000    0.000       11        9     2069  Maize_Short_Soroca_22May_Optimum_26_NCC.PRM
  Tot(90)       22        5     2070    194.7    541.7   1290.6   437.00      0.0    183.1     11.6     13.6      0.0    149.1       61    237.3    237.2       82     0.000     0.000     0.000     0.000      107        0        0        0        9       10       14    16.855       74     39.8    6.716   -9.900     1.74    0.000    0.000       11        9     2070  Maize_Short_Soroca_22May_Optimum_26_NCC.PRM
  Tot(91)       22        5     2071    112.6    538.7   1249.1   437.00      0.0    112.4      0.2      0.0      0.0    109.3       42    218.3    217.9       80     0.000     0.000     0.000     0.000      107        0        0        0       10       15       15    15.700       70     40.1    6.304   -9.900     1.92    0.000    0.000       11        9     2071  Maize_Short_Soroca_22May_Optimum_26_NCC.PRM
  Tot(92)       22        5     2072    262.8    441.9   1168.9   436.00      0.0    247.4     15.4     32.3      0.0    137.9       81    257.1    257.5       99     0.000     0.000     0.000     0.000      107        0        0        0        9        0        1    21.515       97     40.0    8.611   -9.900     2.18    0.000    0.000       11        9     2072  Maize_Short_Soroca_22May_Optimum_26_NCC.PRM
  Tot(93)       22        5     2073    118.1    574.4   1296.0   436.00      0.0    114.6      3.5     12.9      0.0    119.9       40    191.2    191.4       77     0.000     0.000     0.000     0.000       95        0        0        0        9       24       19    11.404       47     32.0    3.652   -9.900     1.18    0.000    0.000       11        9     2073  Maize_Short_Soroca_22May_Optimum_26_NCC.PRM
  Tot(94)       22        5     2074    233.6    428.9   1110.8   435.00      0.0    227.8      5.8      3.5      0.0    108.0       54    214.8    212.9      100     0.000     0.000     0.000     0.000      107        0        0        0       17        2        0    19.346       96     40.0    7.740   -9.900     2.40    0.000    0.000       11        9     2074  Maize_Short_Soroca_22May_Optimum_26_NCC.PRM
  Tot(95)       22        5     2075    156.6    548.7   1289.7   435.00      0.0    155.6      1.0      0.0      0.0    123.0       47    248.9    250.5       85     0.000     0.000     0.000     0.000      107        0        0        0        7       17       11    17.636       76     40.4    7.122   -9.900     1.91    0.000    0.000       11        9     2075  Maize_Short_Soroca_22May_Optimum_26_NCC.PRM
  Tot(96)       22        5     2076    277.8    523.7   1225.0   434.00      0.0    267.9      9.9     12.6      0.0    168.7       76    254.9    254.3       87     0.000     0.000     0.000     0.000      107        0        0        0       14       10        8    17.108       80     40.4    6.919   -9.900     1.63    0.000    0.000       11        9     2076  Maize_Short_Soroca_22May_Optimum_26_NCC.PRM
  Tot(97)       22        5     2077    273.1    439.5   1118.2   433.00      0.0    269.3      3.8      2.9      0.0    129.7       70    235.1    235.9      100     0.000     0.000     0.000     0.000      107        0        0        0       18        2        0    20.057       97     40.0    8.024   -9.900     2.20    0.000    0.000       11        9     2077  Maize_Short_Soroca_22May_Optimum_26_NCC.PRM
  Tot(98)       22        5     2078    165.6    568.2   1327.9   433.00      0.0    163.8      1.8      4.5      0.0    132.8       51    218.9    219.0       74     0.000     0.000     0.000     0.000      107        0        0        0        8       17       19    14.262       62     39.3    5.604   -9.900     1.59    0.000    0.000       11        9     2078  Maize_Short_Soroca_22May_Optimum_26_NCC.PRM
  Tot(99)       22        5     2079    106.9    592.7   1261.6   432.00      0.0    104.8      2.1      1.0      0.0    125.1       36    182.5    182.6       77     0.000     0.000     0.000     0.000       94        0        0        0       10       26       19    10.550       46     31.4    3.310   -9.900     1.10    0.000    0.000       11        9     2079  Maize_Short_Soroca_22May_Optimum_26_NCC.PRM
 Tot(100)       22        5     2080    140.0    550.4   1291.2   432.00      0.0    139.2      0.8      1.4      0.0    147.0       53    199.6    199.6       77     0.000     0.000     0.000     0.000      107        0        0        0        7       20       20    12.834       56     38.2    4.896   -9.900     1.41    0.000    0.000       11        9     2080  Maize_Short_Soroca_22May_Optimum_26_NCC.PRM
 Tot(101)       22        5     2081    248.6    521.2   1270.2   431.00      0.0    228.0     20.6     39.5      0.0    161.9       72    246.7    246.4       86     0.000     0.000     0.000     0.000      107        0        0        0        7        6       14    17.643       77     39.9    7.031   -9.900     1.72    0.000    0.000       11        9     2081  Maize_Short_Soroca_22May_Optimum_26_NCC.PRM
 Tot(102)       22        5     2082    230.9    460.1   1172.0   431.00      0.0    224.0      6.9     14.7      0.0    128.5       64    252.8    251.8      100     0.000     0.000     0.000     0.000      107        0        0        0       11        3        0    21.283       96     40.1    8.537   -9.900     2.24    0.000    0.000       11        9     2082  Maize_Short_Soroca_22May_Optimum_26_NCC.PRM
 Tot(103)       22        5     2083    172.8    524.3   1265.3   430.00      0.0    171.9      0.9      0.0      0.0    118.3       55    270.2    270.8       88     0.000     0.000     0.000     0.000      107        0        0        0        8        5       11    18.601       81     39.9    7.420   -9.900     1.91    0.000    0.000       11        9     2083  Maize_Short_Soroca_22May_Optimum_26_NCC.PRM
 Tot(104)       22        5     2084    171.5    572.7   1432.8   429.00      0.0    167.6      3.9      0.0      0.0    127.9       44    245.8    245.4       85     0.000     0.000     0.000     0.000      107        0        0        0        4       26       11    16.503       69     40.7    6.715   -9.900     1.80    0.000    0.000       11        9     2084  Maize_Short_Soroca_22May_Optimum_26_NCC.PRM
 Tot(105)       22        5     2085    214.0    492.6   1151.6   429.00      0.0    205.6      8.4     13.3      0.0    111.5       53    253.6    254.2       95     0.000     0.000     0.000     0.000      107        0        0        0       14        7        3    18.411       89     40.3    7.421   -9.900     2.03    0.000    0.000       11        9     2085  Maize_Short_Soroca_22May_Optimum_26_NCC.PRM
 Tot(106)       22        5     2086    116.8    603.3   1353.5   428.00      0.0    116.6      0.2      0.0      0.0    127.4       37    176.6    177.2       71     0.000     0.000     0.000     0.000       89        0        0        0        5       28       21     9.293       41     26.1    2.424   -9.900     0.85    0.000    0.000       11        9     2086  Maize_Short_Soroca_22May_Optimum_26_NCC.PRM
 Tot(107)       22        5     2087    152.5    506.1   1161.9   428.00      0.0    151.4      1.1      0.0      0.0    124.1       56    237.4    236.9       86     0.000     0.000     0.000     0.000      107        0        0        0       15       10       10    17.217       77     40.3    6.941   -9.900     1.92    0.000    0.000       11        9     2087  Maize_Short_Soroca_22May_Optimum_26_NCC.PRM
 Tot(108)       22        5     2088    318.2    454.7   1113.5   427.00      0.0    290.4     27.8     51.2      0.0    156.4       85    258.3    257.2      100     0.000     0.000     0.000     0.000      107        0        0        0       16        4        0    20.797       97     40.3    8.373   -9.900     2.02    0.000    0.000       11        9     2088  Maize_Short_Soroca_22May_Optimum_26_NCC.PRM
 Tot(109)       22        5     2089    194.6    525.2   1201.9   427.00      0.0    177.6     17.0      0.3      0.0    135.0       54    203.0    204.6       78     0.000     0.000     0.000     0.000      102        0        0        0        8       17       18    13.829       60     39.0    5.398   -9.900     1.62    0.000    0.000       11        9     2089  Maize_Short_Soroca_22May_Optimum_26_NCC.PRM
 Tot(110)       22        5     2090    156.6    474.3   1111.5   426.00      0.0    142.2     14.4     18.9      0.0    101.8       48    230.0    228.7       92     0.000     0.000     0.000     0.000      107        0        0        0       13       10        7    18.182       85     40.3    7.327   -9.900     2.21    0.000    0.000       11        9     2090  Maize_Short_Soroca_22May_Optimum_26_NCC.PRM
 Tot(111)       22        5     2091    219.1    504.2   1199.7   425.00      0.0    204.3     14.8      0.0      0.0    107.1       46    258.9    259.0       97     0.000     0.000     0.000     0.000      107        0        0        0       16       17        2    18.835       88     40.8    7.689   -9.900     2.10    0.000    0.000       11        9     2091  Maize_Short_Soroca_22May_Optimum_26_NCC.PRM
 Tot(112)       22        5     2092    203.7    471.6   1186.0   425.00      0.0    197.6      6.1     19.0      0.0    113.9       56    254.4    253.2       95     0.000     0.000     0.000     0.000      107        0        0        0       10        7        4    20.144       88     40.2    8.089   -9.900     2.20    0.000    0.000       11        9     2092  Maize_Short_Soroca_22May_Optimum_26_NCC.PRM
 Tot(113)       22        5     2093    235.2    481.7   1135.8   424.00      0.0    227.7      7.5      3.3      0.0    120.5       56    264.1    265.5      100     0.000     0.000     0.000     0.000      107        0        0        0       14        2        0    21.037       96     40.0    8.423   -9.900     2.19    0.000    0.000       11        9     2093  Maize_Short_Soroca_22May_Optimum_26_NCC.PRM
 Tot(114)       22        5     2094    163.4    639.3   1444.6   424.00      0.0    155.4      8.0      2.4      0.0    124.3       29    187.9    188.1       84     0.000     0.000     0.000     0.000      107        0        0        0        5       39        8    10.703       46     40.7    4.360   -9.900     1.40    0.000    0.000       11        9     2094  Maize_Short_Soroca_22May_Optimum_26_NCC.PRM
 Tot(115)       22        5     2095    219.4    544.3   1251.0   423.00      0.0    198.4     21.0      0.0      0.0    104.1       39    280.4    279.8       99     0.000     0.000     0.000     0.000      107        0        0        0       11        8        1    19.843       91     40.1    7.951   -9.900     2.07    0.000    0.000       11        9     2095  Maize_Short_Soroca_22May_Optimum_26_NCC.PRM
 Tot(116)       22        5     2096    242.2    417.8   1040.1   423.00      0.0    230.2     12.0     22.9      0.0    120.9       75    240.4    241.6      100     0.000     0.000     0.000     0.000      107        0        0        0       24        1        0    20.440       98     40.1    8.190   -9.900     2.27    0.000    0.000       11        9     2096  Maize_Short_Soroca_22May_Optimum_26_NCC.PRM
 Tot(117)       22        5     2097    156.8    522.5   1230.5   422.00      0.0    156.7      0.1      0.0      0.0    135.1       58    240.4    239.7       83     0.000     0.000     0.000     0.000      107        0        0        0       13       13       14    17.156       74     40.1    6.886   -9.900     1.83    0.000    0.000       11        9     2097  Maize_Short_Soroca_22May_Optimum_26_NCC.PRM
 Tot(118)       22        5     2098    198.1    500.0   1150.8   422.00      0.0    192.7      5.4      6.9      0.0    140.0       66    237.7    237.1       86     0.000     0.000     0.000     0.000      107        0        0        0       15        8        9    16.809       79     40.0    6.724   -9.900     1.78    0.000    0.000       11        9     2098  Maize_Short_Soroca_22May_Optimum_26_NCC.PRM
 Tot(119)       22        5     2099    209.1    501.3   1302.4   421.00      0.0    207.4      1.7      0.7      0.0    134.3       62    274.1    273.8       95     0.000     0.000     0.000     0.000      107        0        0        0        7        7        4    20.759       90     40.3    8.360   -9.900     2.05    0.000    0.000       11        9     2099  Maize_Short_Soroca_22May_Optimum_26_NCC.PRM
