AquaCrop 7.0 (August 2022) - Output created on (date) : 24-11-2022   at (time) : 10:12:57

    RunNr     Day1   Month1    Year1     Rain      ETo       GD     CO2      Irri   Infilt   Runoff    Drain   Upflow        E     E/Ex       Tr      TrW   Tr/Trx    SaltIn   SaltOut    SaltUp  SaltProf     Cycle   SaltStr  FertStr  WeedStr  TempStr   ExpStr   StoStr  BioMass  Brelative   HI    Y(dry)  Y(fresh)    WPet      Bin     Bout     DayN   MonthN    YearN
                                           mm       mm  degC.day    ppm        mm       mm       mm       mm       mm       mm        %       mm       mm        %    ton/ha    ton/ha    ton/ha    ton/ha      days       %        %        %        %        %        %    ton/ha        %       %    ton/ha   ton/ha    kg/m3   ton/ha   ton/ha
   Tot(1)        7        5     1981    150.4    483.8   1212.1   340.11      0.0    145.9      4.5     12.1      0.0     84.3       41    248.4    192.5       87     0.000     0.000     0.000     0.000      107        0       42       25       12        5        9    13.734       64     39.6    5.444   -9.900     1.64    0.000    0.000       27        8     1981  Maize_short_Chisinau_7May_NonOptimum_26_MPI.PRM
   Tot(2)        7        5     1982    192.0    471.0   1188.7   341.22      0.0    191.9      0.1      0.0      0.0     76.4       35    258.6    198.8      100     0.000     0.000     0.000     0.000      107        0       42       25       11        2        0    15.957       74     40.0    6.384   -9.900     1.91    0.000    0.000       27        8     1982  Maize_short_Chisinau_7May_NonOptimum_26_MPI.PRM
   Tot(3)        7        5     1983    269.2    465.2   1233.5   342.84      0.0    253.3     15.9     23.6      0.0     99.3       48    261.7    202.2      100     0.000     0.000     0.000     0.000      107        0       42       25        9        2        0    16.019       75     40.1    6.418   -9.900     1.78    0.000    0.000       27        8     1983  Maize_short_Chisinau_7May_NonOptimum_26_MPI.PRM
   Tot(4)        7        5     1984    239.1    438.2   1067.3   344.40      0.0    237.1      2.0      2.8      0.0    134.8       75    245.6    191.3      100     0.000     0.000     0.000     0.000      107        0       42       25       17        0        0    15.222       75     40.0    6.090   -9.900     1.60    0.000    0.000       27        8     1984  Maize_short_Chisinau_7May_NonOptimum_26_MPI.PRM
   Tot(5)        7        5     1985    292.8    461.8   1172.6   345.87      0.0    263.1     29.7     63.0      0.0    102.2       53    265.5    202.8      100     0.000     0.000     0.000     0.000      107        0       42       25       13        0        0    15.701       75     40.0    6.281   -9.900     1.71    0.000    0.000       27        8     1985  Maize_short_Chisinau_7May_NonOptimum_26_MPI.PRM
   Tot(6)        7        5     1986    172.4    527.7   1261.6   347.19      0.0    171.9      0.5      0.0      0.0     89.5       39    281.4    219.1       93     0.000     0.000     0.000     0.000      107        0       42       25        8        5        4    14.907       69     40.0    5.965   -9.900     1.61    0.000    0.000       27        8     1986  Maize_short_Chisinau_7May_NonOptimum_26_MPI.PRM
   Tot(7)        7        5     1987    259.6    481.6   1137.9   348.98      0.0    253.3      6.3      0.0      0.0    110.0       59    294.0    227.1      100     0.000     0.000     0.000     0.000      107        0       42       25       15        3        0    15.808       75     40.2    6.348   -9.900     1.57    0.000    0.000       27        8     1987  Maize_short_Chisinau_7May_NonOptimum_26_MPI.PRM
   Tot(8)        7        5     1988    236.3    471.5   1252.6   351.45      0.0    227.3      9.0     15.1      0.0    121.2       71    286.2    223.5       93     0.000     0.000     0.000     0.000      107        0       42       25        9        3        5    15.514       70     39.9    6.196   -9.900     1.52    0.000    0.000       27        8     1988  Maize_short_Chisinau_7May_NonOptimum_26_MPI.PRM
   Tot(9)        7        5     1989    210.4    486.7   1164.0   352.89      0.0    207.5      2.9      2.5      0.0     95.5       49    291.8    224.6       99     0.000     0.000     0.000     0.000      107        0       42       25       14        3        1    16.171       74     40.2    6.499   -9.900     1.68    0.000    0.000       27        8     1989  Maize_short_Chisinau_7May_NonOptimum_26_MPI.PRM
  Tot(10)        7        5     1990    161.6    507.1   1149.5   354.16      0.0    158.4      3.2      2.2      0.0    115.0       55    257.2    200.1       86     0.000     0.000     0.000     0.000      107        0       42       25       16        5       11    13.812       62     39.9    5.514   -9.900     1.48    0.000    0.000       27        8     1990  Maize_short_Chisinau_7May_NonOptimum_26_MPI.PRM
  Tot(11)        7        5     1991    438.7    420.7   1183.0   355.48      0.0    393.0     45.7     66.9      0.0    123.6       82    281.3    217.0      100     0.000     0.000     0.000     0.000      107        0       42       25       17        0        0    17.231       75     40.0    6.894   -9.900     1.70    0.000    0.000       27        8     1991  Maize_short_Chisinau_7May_NonOptimum_26_MPI.PRM
  Tot(12)        7        5     1992    191.1    523.2   1230.9   356.27      0.0    188.5      2.6      5.7      0.0    128.5       66    273.6    212.5       83     0.000     0.000     0.000     0.000      107        0       42       25       16        4       13    13.651       60     39.5    5.391   -9.900     1.34    0.000    0.000       27        8     1992  Maize_short_Chisinau_7May_NonOptimum_26_MPI.PRM
  Tot(13)        7        5     1993    202.8    503.8   1154.4   356.95      0.0    196.6      6.2     19.9      0.0    106.9       53    274.0    212.1       93     0.000     0.000     0.000     0.000      107        0       42       25       13        3        5    14.548       70     39.9    5.807   -9.900     1.52    0.000    0.000       27        8     1993  Maize_short_Chisinau_7May_NonOptimum_26_MPI.PRM
  Tot(14)        7        5     1994    258.9    536.5   1263.4   358.63      0.0    219.5     39.4      7.8      0.0    105.8       45    256.5    201.0       84     0.000     0.000     0.000     0.000      107        0       42       25       10       11       11    12.833       57     39.7    5.096   -9.900     1.41    0.000    0.000       27        8     1994  Maize_short_Chisinau_7May_NonOptimum_26_MPI.PRM
  Tot(15)        7        5     1995    186.0    502.8   1281.6   360.62      0.0    184.0      2.0      2.1      0.0     91.1       44    283.7    219.6       91     0.000     0.000     0.000     0.000      107        0       42       25        8        6        6    15.609       68     40.1    6.258   -9.900     1.67    0.000    0.000       27        8     1995  Maize_short_Chisinau_7May_NonOptimum_26_MPI.PRM
  Tot(16)        7        5     1996    148.0    541.5   1272.6   362.37      0.0    147.1      0.9      0.0      0.0    101.4       38    231.0    181.7       85     0.000     0.000     0.000     0.000      107        0       42       25       10       18       10    12.116       55     40.5    4.906   -9.900     1.48    0.000    0.000       27        8     1996  Maize_short_Chisinau_7May_NonOptimum_26_MPI.PRM
  Tot(17)        7        5     1997    305.0    448.8   1194.3   363.47      0.0    288.7     16.3      0.0      0.0     83.2       41    258.3    200.5      100     0.000     0.000     0.000     0.000      107        0       42       25       12        3        0    16.781       75     40.0    6.718   -9.900     1.97    0.000    0.000       27        8     1997  Maize_short_Chisinau_7May_NonOptimum_26_MPI.PRM
  Tot(18)        7        5     1998    210.4    488.7   1249.2   366.50      0.0    205.7      4.7     10.9      0.0    111.7       61    290.0    223.4       94     0.000     0.000     0.000     0.000      107        0       42       25       14        1        5    15.740       71     39.9    6.287   -9.900     1.57    0.000    0.000       27        8     1998  Maize_short_Chisinau_7May_NonOptimum_26_MPI.PRM
  Tot(19)        7        5     1999    158.4    516.7   1334.1   368.14      0.0    157.0      1.4      0.0      0.0    100.6       45    268.0    209.4       87     0.000     0.000     0.000     0.000      107        0       42       25        8        7       10    14.361       61     40.1    5.758   -9.900     1.56    0.000    0.000       27        8     1999  Maize_short_Chisinau_7May_NonOptimum_26_MPI.PRM
  Tot(20)        7        5     2000    167.4    572.2   1257.5   369.41      0.0    163.5      3.9      0.0      0.0     68.3       25    276.6    216.9       91     0.000     0.000     0.000     0.000      107        0       42       25       11       15        6    14.018       64     40.2    5.631   -9.900     1.63    0.000    0.000       27        8     2000  Maize_short_Chisinau_7May_NonOptimum_26_MPI.PRM
  Tot(21)        7        5     2001    210.4    518.6   1269.3   371.07      0.0    189.0     21.4     20.8      0.0    114.9       57    275.9    213.2       85     0.000     0.000     0.000     0.000      107        0       42       25       13        2       12    14.489       63     39.6    5.734   -9.900     1.47    0.000    0.000       27        8     2001  Maize_short_Chisinau_7May_NonOptimum_26_MPI.PRM
  Tot(22)        7        5     2002    285.3    517.8   1347.8   373.16      0.0    259.1     26.2      0.0      0.0    101.6       45    297.0    230.4       96     0.000     0.000     0.000     0.000      107        0       42       25        7       18        2    16.142       69     40.9    6.603   -9.900     1.66    0.000    0.000       27        8     2002  Maize_short_Chisinau_7May_NonOptimum_26_MPI.PRM
  Tot(23)        7        5     2003    186.5    574.0   1346.0   375.80      0.0    185.1      1.4      0.0      0.0     79.3       27    298.2    233.0       98     0.000     0.000     0.000     0.000      107        0       42       25        6       10        1    16.111       70     40.1    6.458   -9.900     1.71    0.000    0.000       27        8     2003  Maize_short_Chisinau_7May_NonOptimum_26_MPI.PRM
  Tot(24)        7        5     2004    218.3    504.4   1151.0   377.49      0.0    209.4      8.9      0.0      0.0    107.5       51    288.6    225.0       96     0.000     0.000     0.000     0.000      107        0       42       25       16       11        3    15.863       70     40.3    6.397   -9.900     1.62    0.000    0.000       27        8     2004  Maize_short_Chisinau_7May_NonOptimum_26_MPI.PRM
  Tot(25)        7        5     2005    328.8    485.2   1234.8   379.80      0.0    312.1     16.7     20.4      0.0    126.4       64    298.8    230.9      100     0.000     0.000     0.000     0.000      107        0       42       25       10        1        0    17.366       75     40.1    6.959   -9.900     1.64    0.000    0.000       27        8     2005  Maize_short_Chisinau_7May_NonOptimum_26_MPI.PRM
  Tot(26)        7        5     2006    272.0    533.8   1259.8   381.90      0.0    265.7      6.3      5.5      0.0    142.1       70    318.0    246.4       94     0.000     0.000     0.000     0.000      107        0       42       25       10        4        5    16.158       70     40.2    6.498   -9.900     1.41    0.000    0.000       27        8     2006  Maize_short_Chisinau_7May_NonOptimum_26_MPI.PRM
  Tot(27)        7        5     2007    144.6    648.6   1473.6   383.77      0.0    144.1      0.5      0.0      0.0    103.1       31    250.0    199.0       78     0.000     0.000     0.000     0.000      107        0       42       25        2       20       16    11.151       47     40.1    4.473   -9.900     1.27    0.000    0.000       27        8     2007  Maize_short_Chisinau_7May_NonOptimum_26_MPI.PRM
  Tot(28)        7        5     2008    177.3    560.5   1291.6   385.59      0.0    172.8      4.5      0.0      0.0     88.5       38    300.9    233.9       88     0.000     0.000     0.000     0.000      107        0       42       25        6       10        9    15.116       64     40.2    6.082   -9.900     1.56    0.000    0.000       27        8     2008  Maize_short_Chisinau_7May_NonOptimum_26_MPI.PRM
  Tot(29)        7        5     2009    161.5    583.3   1333.2   387.37      0.0    160.0      1.5      0.0      0.0     86.6       33    293.0    228.8       86     0.000     0.000     0.000     0.000      107        0       42       25        6       10       11    14.287       61     39.9    5.698   -9.900     1.50    0.000    0.000       27        8     2009  Maize_short_Chisinau_7May_NonOptimum_26_MPI.PRM
  Tot(30)        7        5     2010    248.4    518.6   1414.0   389.85      0.0    235.0     13.4      0.2      0.0    121.5       59    315.2    243.3       96     0.000     0.000     0.000     0.000      107        0       42       25        7        1        3    16.950       72     40.0    6.776   -9.900     1.55    0.000    0.000       27        8     2010  Maize_short_Chisinau_7May_NonOptimum_26_MPI.PRM
  Tot(31)        7        5     2011    234.3    546.6   1320.9   391.63      0.0    220.0     14.3      7.4      0.0    112.6       48    306.3    237.6       95     0.000     0.000     0.000     0.000      107        0       42       25        6        2        4    16.151       71     40.0    6.458   -9.900     1.54    0.000    0.000       27        8     2011  Maize_short_Chisinau_7May_NonOptimum_26_MPI.PRM
  Tot(32)        7        5     2012    192.6    618.6   1442.0   393.82      0.0    189.8      2.8      1.7      0.0    129.4       45    271.7    214.9       80     0.000     0.000     0.000     0.000      107        0       42       25        6       19       15    12.345       52     40.0    4.941   -9.900     1.23    0.000    0.000       27        8     2012  Maize_short_Chisinau_7May_NonOptimum_26_MPI.PRM
  Tot(33)        7        5     2013    286.6    541.7   1380.1   396.48      0.0    259.3     27.3      1.1      0.0    118.5       54    322.6    250.5       94     0.000     0.000     0.000     0.000      107        0       42       25        4        2        4    16.955       71     39.9    6.770   -9.900     1.53    0.000    0.000       27        8     2013  Maize_short_Chisinau_7May_NonOptimum_26_MPI.PRM
  Tot(34)        7        5     2014    244.6    539.8   1326.2   398.55      0.0    239.3      5.3      8.4      0.0    121.7       59    306.3    236.1       90     0.000     0.000     0.000     0.000      107        0       42       25        7        6        8    15.565       66     40.0    6.224   -9.900     1.45    0.000    0.000       27        8     2014  Maize_short_Chisinau_7May_NonOptimum_26_MPI.PRM
  Tot(35)        7        5     2015    123.0    600.5   1355.8   401.00      0.0    122.8      0.2      0.3      0.0     77.9       29    262.6    207.0       79     0.000     0.000     0.000     0.000      107        0       42       25        6       10       16    12.611       54     39.5    4.978   -9.900     1.46    0.000    0.000       27        8     2015  Maize_short_Chisinau_7May_NonOptimum_26_MPI.PRM
  Tot(36)        7        5     2016    255.7    540.8   1325.7   403.00      0.0    238.9     16.8     33.2      0.0    141.5       73    285.1    221.1       81     0.000     0.000     0.000     0.000      107        0       42       25       10        5       15    13.866       58     39.7    5.504   -9.900     1.29    0.000    0.000       27        8     2016  Maize_short_Chisinau_7May_NonOptimum_26_MPI.PRM
  Tot(37)        7        5     2017    299.1    552.7   1316.4   405.00      0.0    280.2     18.9     14.6      0.0    112.9       53    345.6    266.1       98     0.000     0.000     0.000     0.000      107        0       42       25        9        2        1    17.456       74     40.1    6.994   -9.900     1.53    0.000    0.000       27        8     2017  Maize_short_Chisinau_7May_NonOptimum_26_MPI.PRM
  Tot(38)        7        5     2018    279.9    546.1   1430.7   408.00      0.0    265.8     14.1      6.4      0.0    100.9       42    319.5    247.2      100     0.000     0.000     0.000     0.000      107        0       42       25        5        2        0    17.624       74     40.0    7.050   -9.900     1.68    0.000    0.000       27        8     2018  Maize_short_Chisinau_7May_NonOptimum_26_MPI.PRM
  Tot(39)        7        5     2019    233.9    552.0   1390.8   410.00      0.0    225.8      8.1     15.5      0.0    132.2       61    296.4    233.0       87     0.000     0.000     0.000     0.000      107        0       42       25        3        9       10    15.153       63     40.1    6.084   -9.900     1.42    0.000    0.000       27        8     2019  Maize_short_Chisinau_7May_NonOptimum_26_MPI.PRM
  Tot(40)        7        5     2020    281.4    444.4   1104.5   412.00      0.0    256.5     24.9     28.1      0.0     99.2       60    273.3    211.8       98     0.000     0.000     0.000     0.000      107        0       42       25       16        1        2    16.326       74     40.0    6.534   -9.900     1.75    0.000    0.000       27        8     2020  Maize_short_Chisinau_7May_NonOptimum_26_MPI.PRM
  Tot(41)        7        5     2021    172.5    464.3   1037.5   414.00      0.0    170.3      2.2      0.0      0.0     82.9       44    268.7    206.1      100     0.000     0.000     0.000     0.000      107        0       42       25       23        7        0    16.095       74     40.5    6.514   -9.900     1.85    0.000    0.000       27        8     2021  Maize_short_Chisinau_7May_NonOptimum_26_MPI.PRM
  Tot(42)        7        5     2022    204.8    455.3   1081.4   417.00      0.0    198.8      6.0     17.8      0.0    107.1       71    276.4    214.4       93     0.000     0.000     0.000     0.000      107        0       42       25       23        1        5    15.450       70     39.9    6.172   -9.900     1.61    0.000    0.000       27        8     2022  Maize_short_Chisinau_7May_NonOptimum_26_MPI.PRM
  Tot(43)        7        5     2023    154.9    586.6   1303.9   419.00      0.0    154.7      0.2      0.0      0.0    118.5       43    249.7    196.6       82     0.000     0.000     0.000     0.000      107        0       42       25        6       14       15    12.526       55     40.1    5.021   -9.900     1.36    0.000    0.000       27        8     2023  Maize_short_Chisinau_7May_NonOptimum_26_MPI.PRM
  Tot(44)        7        5     2024    203.6    488.8   1105.7   421.00      0.0    195.7      7.9     18.1      0.0    124.1       66    262.0    203.1       91     0.000     0.000     0.000     0.000      107        0       42       25       17        3        6    14.861       68     39.9    5.928   -9.900     1.54    0.000    0.000       27        8     2024  Maize_short_Chisinau_7May_NonOptimum_26_MPI.PRM
  Tot(45)        7        5     2025    257.4    482.9   1171.8   423.00      0.0    245.1     12.3     17.4      0.0    100.6       51    280.0    218.1       96     0.000     0.000     0.000     0.000      107        0       42       25       14       12        3    16.145       70     40.3    6.506   -9.900     1.71    0.000    0.000       27        8     2025  Maize_short_Chisinau_7May_NonOptimum_26_MPI.PRM
  Tot(46)        7        5     2026    110.1    538.3   1120.3   424.00      0.0    110.0      0.1      0.0      0.0     74.4       32    254.8    199.1       85     0.000     0.000     0.000     0.000      107        0       42       25       17        9       10    13.615       61     39.9    5.432   -9.900     1.65    0.000    0.000       27        8     2026  Maize_short_Chisinau_7May_NonOptimum_26_MPI.PRM
  Tot(47)        7        5     2027    160.7    449.4   1061.5   426.00      0.0    158.9      1.8      0.0      0.0     75.8       42    258.1    197.5      100     0.000     0.000     0.000     0.000      107        0       42       25       18        2        0    15.912       75     40.0    6.373   -9.900     1.91    0.000    0.000       27        8     2027  Maize_short_Chisinau_7May_NonOptimum_26_MPI.PRM
  Tot(48)        7        5     2028    323.3    412.4    943.6   428.00      0.0    301.8     21.5     29.8      0.0    122.4       72    222.3    173.3      100     0.000     0.000     0.000     0.000      107        0       42       25       24        0        0    14.925       75     40.0    5.970   -9.900     1.73    0.000    0.000       27        8     2028  Maize_short_Chisinau_7May_NonOptimum_26_MPI.PRM
  Tot(49)        7        5     2029    167.5    449.8   1052.5   429.00      0.0    161.4      6.1      0.0      0.0     97.8       57    255.9    198.3       97     0.000     0.000     0.000     0.000      107        0       42       25       20        1        2    15.667       73     40.0    6.265   -9.900     1.77    0.000    0.000       27        8     2029  Maize_short_Chisinau_7May_NonOptimum_26_MPI.PRM
  Tot(50)        7        5     2030    184.4    515.2   1200.3   431.00      0.0    181.2      3.2     10.0      0.0    110.5       61    281.9    218.4       85     0.000     0.000     0.000     0.000      107        0       42       25       14        1       11    14.608       64     39.6    5.784   -9.900     1.47    0.000    0.000       27        8     2030  Maize_short_Chisinau_7May_NonOptimum_26_MPI.PRM
  Tot(51)        7        5     2031    229.6    480.7   1151.1   432.00      0.0    215.8     13.8     19.7      0.0    110.8       54    271.2    210.1       99     0.000     0.000     0.000     0.000      107        0       42       25       13        9        1    16.680       73     40.3    6.721   -9.900     1.76    0.000    0.000       27        8     2031  Maize_short_Chisinau_7May_NonOptimum_26_MPI.PRM
  Tot(52)        7        5     2032    313.6    445.8   1021.1   433.00      0.0    261.8     51.8     60.2      0.0    106.8       68    274.6    211.7       99     0.000     0.000     0.000     0.000      107        0       42       25       22        0        0    16.476       75     40.0    6.595   -9.900     1.73    0.000    0.000       27        8     2032  Maize_short_Chisinau_7May_NonOptimum_26_MPI.PRM
  Tot(53)        7        5     2033    200.4    457.3   1051.5   435.00      0.0    196.2      4.2      2.5      0.0     70.8       34    237.0    183.4      100     0.000     0.000     0.000     0.000      107        0       42       25       17        3        0    15.772       74     40.0    6.312   -9.900     2.05    0.000    0.000       27        8     2033  Maize_short_Chisinau_7May_NonOptimum_26_MPI.PRM
  Tot(54)        7        5     2034    172.8    529.2   1201.4   436.00      0.0    170.7      2.1      0.0      0.0     93.9       42    276.1    215.0       90     0.000     0.000     0.000     0.000      107        0       42       25       13        7        7    14.985       64     40.1    6.002   -9.900     1.62    0.000    0.000       27        8     2034  Maize_short_Chisinau_7May_NonOptimum_26_MPI.PRM
  Tot(55)        7        5     2035    171.9    503.5   1114.6   437.00      0.0    167.2      4.7     11.7      0.0     94.2       51    277.1    215.1       90     0.000     0.000     0.000     0.000      107        0       42       25       15        4        7    15.206       67     40.0    6.080   -9.900     1.64    0.000    0.000       27        8     2035  Maize_short_Chisinau_7May_NonOptimum_26_MPI.PRM
  Tot(56)        7        5     2036    212.2    469.7   1154.0   438.00      0.0    210.2      2.0      6.1      0.0    113.3       61    276.9    213.4       99     0.000     0.000     0.000     0.000      107        0       42       25       15        3        1    16.689       74     40.2    6.703   -9.900     1.72    0.000    0.000       27        8     2036  Maize_short_Chisinau_7May_NonOptimum_26_MPI.PRM
  Tot(57)        7        5     2037    200.0    466.9   1090.4   438.00      0.0    192.5      7.5      5.8      0.0     86.0       42    251.9    195.1      100     0.000     0.000     0.000     0.000      107        0       42       25       17        2        0    16.271       74     40.1    6.522   -9.900     1.93    0.000    0.000       27        8     2037  Maize_short_Chisinau_7May_NonOptimum_26_MPI.PRM
  Tot(58)        7        5     2038    188.4    463.3   1122.0   439.00      0.0    178.1     10.3     11.3      0.0     82.7       43    267.6    207.0       99     0.000     0.000     0.000     0.000      107        0       42       25       16        6        1    16.711       74     40.4    6.756   -9.900     1.93    0.000    0.000       27        8     2038  Maize_short_Chisinau_7May_NonOptimum_26_MPI.PRM
  Tot(59)        7        5     2039    194.2    553.5   1165.0   440.00      0.0    183.3     10.9      1.5      0.0     96.7       41    249.5    196.8       82     0.000     0.000     0.000     0.000      107        0       42       25       13       15       11    12.515       54     40.3    5.049   -9.900     1.46    0.000    0.000       27        8     2039  Maize_short_Chisinau_7May_NonOptimum_26_MPI.PRM
  Tot(60)        7        5     2040    139.2    514.2   1140.0   440.00      0.0    139.2      0.0      0.0      0.0     89.6       44    264.9    205.7       90     0.000     0.000     0.000     0.000      107        0       42       25       17        5        9    14.569       66     39.9    5.812   -9.900     1.64    0.000    0.000       27        8     2040  Maize_short_Chisinau_7May_NonOptimum_26_MPI.PRM
  Tot(61)        7        5     2041    105.8    598.7   1211.6   441.00      0.0    103.7      2.1      0.0      0.0     87.7       32    237.6    185.1       77     0.000     0.000     0.000     0.000      107        0       42       25       12        7       19    11.540       49     39.0    4.498   -9.900     1.38    0.000    0.000       27        8     2041  Maize_short_Chisinau_7May_NonOptimum_26_MPI.PRM
  Tot(62)        7        5     2042    292.4    467.0   1161.4   441.00      0.0    267.2     25.2      0.0      0.0    104.6       49    254.1    196.4      100     0.000     0.000     0.000     0.000      107        0       42       25       13        4        0    16.607       74     40.2    6.679   -9.900     1.86    0.000    0.000       27        8     2042  Maize_short_Chisinau_7May_NonOptimum_26_MPI.PRM
  Tot(63)        7        5     2043    153.6    471.3   1040.1   441.00      0.0    150.2      3.4     11.3      0.0    103.6       59    248.2    191.5       91     0.000     0.000     0.000     0.000      107        0       42       25       24        1        7    14.614       68     39.9    5.831   -9.900     1.66    0.000    0.000       27        8     2043  Maize_short_Chisinau_7May_NonOptimum_26_MPI.PRM
  Tot(64)        7        5     2044    281.3    444.8   1086.4   442.00      0.0    269.1     12.2      0.9      0.0     99.2       49    236.0    182.7      100     0.000     0.000     0.000     0.000      107        0       42       25       18        3        0    15.951       75     40.2    6.410   -9.900     1.91    0.000    0.000       27        8     2044  Maize_short_Chisinau_7May_NonOptimum_26_MPI.PRM
  Tot(65)        7        5     2045    334.5    403.3   1024.1   442.00      0.0    304.6     29.9     40.1      0.0    103.0       71    247.1    191.4      100     0.000     0.000     0.000     0.000      107        0       42       25       23        2        0    16.430       75     40.1    6.582   -9.900     1.88    0.000    0.000       27        8     2045  Maize_short_Chisinau_7May_NonOptimum_26_MPI.PRM
  Tot(66)        7        5     2046    130.4    445.7   1080.9   442.00      0.0    130.0      0.4      2.8      0.0     80.8       45    241.7    186.1       92     0.000     0.000     0.000     0.000      107        0       42       25       16        9        5    15.353       67     40.3    6.193   -9.900     1.92    0.000    0.000       27        8     2046  Maize_short_Chisinau_7May_NonOptimum_26_MPI.PRM
  Tot(67)        7        5     2047    329.5    432.7   1071.9   442.00      0.0    293.2     36.3     15.7      0.0     90.8       54    256.8    197.8      100     0.000     0.000     0.000     0.000      107        0       42       25       19        1        0    16.315       75     40.0    6.530   -9.900     1.88    0.000    0.000       27        8     2047  Maize_short_Chisinau_7May_NonOptimum_26_MPI.PRM
  Tot(68)        7        5     2048    302.7    446.7   1131.9   442.00      0.0    267.8     34.9     34.4      0.0    110.9       58    249.2    193.8      100     0.000     0.000     0.000     0.000      107        0       42       25       13        3        0    16.530       75     40.2    6.639   -9.900     1.84    0.000    0.000       27        8     2048  Maize_short_Chisinau_7May_NonOptimum_26_MPI.PRM
  Tot(69)        7        5     2049    142.7    548.5   1166.4   443.00      0.0    137.4      5.3     10.4      0.0     94.7       43    253.8    199.3       83     0.000     0.000     0.000     0.000      107        0       42       25       12        7       15    13.060       58     39.5    5.163   -9.900     1.48    0.000    0.000       27        8     2049  Maize_short_Chisinau_7May_NonOptimum_26_MPI.PRM
  Tot(70)        7        5     2050    299.5    462.8   1101.6   443.00      0.0    276.0     23.5     27.9      0.0     91.2       47    265.6    204.3      100     0.000     0.000     0.000     0.000      107        0       42       25       15        2        0    16.576       75     40.0    6.634   -9.900     1.86    0.000    0.000       27        8     2050  Maize_short_Chisinau_7May_NonOptimum_26_MPI.PRM
  Tot(71)        7        5     2051    181.8    475.4   1074.7   443.00      0.0    177.8      4.0      8.6      0.0    100.0       58    274.3    213.0       94     0.000     0.000     0.000     0.000      107        0       42       25       17        3        5    15.849       70     40.1    6.355   -9.900     1.70    0.000    0.000       27        8     2051  Maize_short_Chisinau_7May_NonOptimum_26_MPI.PRM
  Tot(72)        7        5     2052    218.4    479.5   1143.9   443.00      0.0    208.8      9.6      0.0      0.0     94.4       41    240.8    188.0       96     0.000     0.000     0.000     0.000      107        0       42       25       13       10        2    15.676       70     40.5    6.342   -9.900     1.89    0.000    0.000       27        8     2052  Maize_short_Chisinau_7May_NonOptimum_26_MPI.PRM
  Tot(73)        7        5     2053    169.8    451.4   1073.6   443.00      0.0    167.2      2.6     14.6      0.0     98.9       61    261.2    202.2       94     0.000     0.000     0.000     0.000      107        0       42       25       19        4        5    15.347       70     40.1    6.154   -9.900     1.71    0.000    0.000       27        8     2053  Maize_short_Chisinau_7May_NonOptimum_26_MPI.PRM
  Tot(74)        7        5     2054    210.0    490.2   1069.1   443.00      0.0    191.5     18.5      8.0      0.0     94.9       49    280.7    216.9       98     0.000     0.000     0.000     0.000      107        0       42       25       18        5        1    16.210       73     40.2    6.511   -9.900     1.73    0.000    0.000       27        8     2054  Maize_short_Chisinau_7May_NonOptimum_26_MPI.PRM
  Tot(75)        7        5     2055    179.3    514.9   1184.3   443.00      0.0    178.4      0.9      3.9      0.0    116.2       57    270.9    211.3       88     0.000     0.000     0.000     0.000      107        0       42       25       15        6       10    14.529       63     40.1    5.824   -9.900     1.50    0.000    0.000       27        8     2055  Maize_short_Chisinau_7May_NonOptimum_26_MPI.PRM
  Tot(76)        7        5     2056    137.4    505.1   1146.0   442.00      0.0    136.2      1.2      1.9      0.0    124.0       62    228.7    178.3       82     0.000     0.000     0.000     0.000      107        0       42       25       14        8       16    12.585       55     39.8    5.005   -9.900     1.42    0.000    0.000       27        8     2056  Maize_short_Chisinau_7May_NonOptimum_26_MPI.PRM
  Tot(77)        7        5     2057    135.8    497.5   1127.3   442.00      0.0    132.6      3.2      9.1      0.0     94.5       46    244.9    189.4       87     0.000     0.000     0.000     0.000      107        0       42       25       16        5        8    14.578       66     40.1    5.841   -9.900     1.72    0.000    0.000       27        8     2057  Maize_short_Chisinau_7May_NonOptimum_26_MPI.PRM
  Tot(78)        7        5     2058    143.1    595.0   1281.9   442.00      0.0    138.6      4.5      0.0      0.0     97.1       29    231.4    185.8       84     0.000     0.000     0.000     0.000      107        0       42       25       10       30       11    11.842       51     40.6    4.805   -9.900     1.46    0.000    0.000       27        8     2058  Maize_short_Chisinau_7May_NonOptimum_26_MPI.PRM
  Tot(79)        7        5     2059    251.6    494.4   1157.9   442.00      0.0    186.1     65.5      0.0      0.0     75.8       34    236.1    183.4       87     0.000     0.000     0.000     0.000      107        0       42       25       16       10        8    13.783       62     40.1    5.525   -9.900     1.77    0.000    0.000       27        8     2059  Maize_short_Chisinau_7May_NonOptimum_26_MPI.PRM
  Tot(80)        7        5     2060    137.6    484.4   1114.6   442.00      0.0    130.9      6.7     15.6      0.0    106.3       60    225.2    175.9       79     0.000     0.000     0.000     0.000      107        0       42       25       20        4       14    12.865       57     39.4    5.070   -9.900     1.53    0.000    0.000       27        8     2060  Maize_short_Chisinau_7May_NonOptimum_26_MPI.PRM
  Tot(81)        7        5     2061    133.4    530.5   1207.5   441.00      0.0    130.6      2.8      0.0      0.0     74.3       31    267.3    208.2       90     0.000     0.000     0.000     0.000      107        0       42       25       12       19        7    14.910       64     40.8    6.082   -9.900     1.78    0.000    0.000       27        8     2061  Maize_short_Chisinau_7May_NonOptimum_26_MPI.PRM
  Tot(82)        7        5     2062    201.3    393.7    910.7   441.00      0.0    192.6      8.7     18.7      0.0     90.1       62    221.0    170.5      100     0.000     0.000     0.000     0.000      107        0       42       25       26        1        0    15.259       75     40.0    6.107   -9.900     1.96    0.000    0.000       27        8     2062  Maize_short_Chisinau_7May_NonOptimum_26_MPI.PRM
  Tot(83)        7        5     2063    213.0    527.4   1184.5   441.00      0.0    190.2     22.8      7.9      0.0    106.8       48    249.1    194.4       83     0.000     0.000     0.000     0.000      107        0       42       25       14       17       11    12.926       56     40.5    5.236   -9.900     1.47    0.000    0.000       27        8     2063  Maize_short_Chisinau_7May_NonOptimum_26_MPI.PRM
  Tot(84)        7        5     2064    126.3    509.8   1134.1   440.00      0.0    125.9      0.4      0.0      0.0     94.8       43    234.3    185.0       84     0.000     0.000     0.000     0.000      107        0       42       25       18       12       11    13.173       57     40.2    5.301   -9.900     1.61    0.000    0.000       27        8     2064  Maize_short_Chisinau_7May_NonOptimum_26_MPI.PRM
  Tot(85)        7        5     2065    181.9    417.4   1032.4   440.00      0.0    175.8      6.1      0.0      0.0     82.1       43    217.6    166.9      100     0.000     0.000     0.000     0.000      107        0       42       25       21        3        0    15.624       75     40.1    6.258   -9.900     2.09    0.000    0.000       27        8     2065  Maize_short_Chisinau_7May_NonOptimum_26_MPI.PRM
  Tot(86)        7        5     2066    205.9    448.5   1021.6   440.00      0.0    204.1      1.8      4.6      0.0     99.5       57    263.6    205.2      100     0.000     0.000     0.000     0.000      107        0       42       25       18        4        0    16.595       75     40.2    6.672   -9.900     1.84    0.000    0.000       27        8     2066  Maize_short_Chisinau_7May_NonOptimum_26_MPI.PRM
  Tot(87)        7        5     2067    290.5    392.0    860.8   439.00      0.0    271.4     19.1     17.3      0.0     88.6       52    194.6    149.4      100     0.000     0.000     0.000     0.000      107        0       42       25       30        0        0    14.667       75     40.0    5.867   -9.900     2.07    0.000    0.000       27        8     2067  Maize_short_Chisinau_7May_NonOptimum_26_MPI.PRM
  Tot(88)        7        5     2068    286.7    434.1   1030.3   439.00      0.0    240.1     46.6     14.5      0.0    109.9       72    264.4    205.7      100     0.000     0.000     0.000     0.000      107        0       42       25       22        1        0    15.608       75     40.1    6.260   -9.900     1.67    0.000    0.000       27        8     2068  Maize_short_Chisinau_7May_NonOptimum_26_MPI.PRM
  Tot(89)        7        5     2069    292.2    476.1   1196.9   438.00      0.0    285.8      6.4      6.5      0.0    123.4       61    273.8    210.3      100     0.000     0.000     0.000     0.000      107        0       42       25       11        3        0    16.915       75     40.1    6.781   -9.900     1.71    0.000    0.000       27        8     2069  Maize_short_Chisinau_7May_NonOptimum_26_MPI.PRM
  Tot(90)        7        5     2070    179.5    515.3   1209.7   437.00      0.0    177.8      1.7      0.0      0.0    102.2       45    254.5    201.0       88     0.000     0.000     0.000     0.000      107        0       42       25       11       23        6    14.062       62     40.8    5.740   -9.900     1.61    0.000    0.000       27        8     2070  Maize_short_Chisinau_7May_NonOptimum_26_MPI.PRM
  Tot(91)        7        5     2071    165.5    525.9   1220.7   437.00      0.0    165.4      0.1      0.0      0.0     98.5       43    275.1    213.5       91     0.000     0.000     0.000     0.000      107        0       42       25        9        4        6    15.369       67     39.9    6.136   -9.900     1.64    0.000    0.000       27        8     2071  Maize_short_Chisinau_7May_NonOptimum_26_MPI.PRM
  Tot(92)        7        5     2072    201.5    542.7   1264.3   436.00      0.0    188.3     13.2     13.3      0.0    126.9       62    264.5    204.5       81     0.000     0.000     0.000     0.000      107        0       42       25        9        3       14    13.775       58     39.2    5.400   -9.900     1.38    0.000    0.000       27        8     2072  Maize_short_Chisinau_7May_NonOptimum_26_MPI.PRM
  Tot(93)        7        5     2073    113.4    559.2   1221.1   436.00      0.0    112.7      0.7      0.0      0.0     90.8       40    246.3    193.7       76     0.000     0.000     0.000     0.000      107        0       42       25       14        7       17    12.800       54     39.3    5.030   -9.900     1.49    0.000    0.000       27        8     2073  Maize_short_Chisinau_7May_NonOptimum_26_MPI.PRM
  Tot(94)        7        5     2074    170.1    526.6   1221.4   435.00      0.0    165.4      4.7      0.0      0.0     94.5       38    245.2    193.0       87     0.000     0.000     0.000     0.000      107        0       42       25       12       21        7    13.657       60     40.6    5.546   -9.900     1.63    0.000    0.000       27        8     2074  Maize_short_Chisinau_7May_NonOptimum_26_MPI.PRM
  Tot(95)        7        5     2075    317.8    469.5   1108.3   435.00      0.0    282.9     34.9      4.7      0.0    112.2       61    276.9    213.3      100     0.000     0.000     0.000     0.000      107        0       42       25       18        3        0    16.331       75     40.0    6.533   -9.900     1.68    0.000    0.000       27        8     2075  Maize_short_Chisinau_7May_NonOptimum_26_MPI.PRM
  Tot(96)        7        5     2076    160.8    539.4   1261.4   434.00      0.0    158.9      1.9      6.0      0.0    112.3       44    236.5    187.9       82     0.000     0.000     0.000     0.000      107        0       42       25        9       22       10    12.908       55     40.3    5.204   -9.900     1.49    0.000    0.000       27        8     2076  Maize_short_Chisinau_7May_NonOptimum_26_MPI.PRM
  Tot(97)        7        5     2077    126.3    575.8   1228.3   433.00      0.0    126.0      0.3      0.0      0.0     89.1       33    247.7    193.8       82     0.000     0.000     0.000     0.000      107        0       42       25       12       11       12    12.683       55     39.7    5.039   -9.900     1.50    0.000    0.000       27        8     2077  Maize_short_Chisinau_7May_NonOptimum_26_MPI.PRM
  Tot(98)        7        5     2078    206.3    465.1   1124.1   433.00      0.0    202.4      3.9      4.4      0.0     66.8       34    263.7    202.4      100     0.000     0.000     0.000     0.000      107        0       42       25       14        4        0    16.266       74     40.2    6.532   -9.900     1.98    0.000    0.000       27        8     2078  Maize_short_Chisinau_7May_NonOptimum_26_MPI.PRM
  Tot(99)        7        5     2079    218.5    429.4   1012.3   432.00      0.0    202.6     15.9     23.8      0.0    101.9       58    234.3    181.7      100     0.000     0.000     0.000     0.000      107        0       42       25       19        1        0    15.602       75     40.0    6.241   -9.900     1.86    0.000    0.000       27        8     2079  Maize_short_Chisinau_7May_NonOptimum_26_MPI.PRM
 Tot(100)        7        5     2080    226.5    475.8   1072.6   432.00      0.0    208.4     18.1     46.6      0.0    108.3       63    264.5    205.4       91     0.000     0.000     0.000     0.000      107        0       42       25       22        2        5    15.273       69     40.0    6.105   -9.900     1.64    0.000    0.000       27        8     2080  Maize_short_Chisinau_7May_NonOptimum_26_MPI.PRM
 Tot(101)        7        5     2081    228.2    474.1   1157.0   431.00      0.0    215.6     12.6     19.9      0.0    113.0       67    281.2    217.6       94     0.000     0.000     0.000     0.000      107        0       42       25       15        1        4    15.642       71     39.9    6.247   -9.900     1.58    0.000    0.000       27        8     2081  Maize_short_Chisinau_7May_NonOptimum_26_MPI.PRM
 Tot(102)        7        5     2082    121.2    512.9   1150.0   431.00      0.0    119.4      1.8      5.9      0.0    110.4       52    219.7    170.7       78     0.000     0.000     0.000     0.000      107        0       42       25       15        7       15    12.067       54     39.3    4.741   -9.900     1.44    0.000    0.000       27        8     2082  Maize_short_Chisinau_7May_NonOptimum_26_MPI.PRM
 Tot(103)        7        5     2083    189.5    508.8   1110.5   430.00      0.0    172.6     16.9     20.9      0.0     87.7       47    279.8    217.0       89     0.000     0.000     0.000     0.000      107        0       42       25       15        4        8    15.041       66     39.9    5.996   -9.900     1.63    0.000    0.000       27        8     2083  Maize_short_Chisinau_7May_NonOptimum_26_MPI.PRM
 Tot(104)        7        5     2084    264.8    451.6   1079.4   429.00      0.0    250.1     14.7     20.0      0.0    103.5       56    265.9    204.0      100     0.000     0.000     0.000     0.000      107        0       42       25       19        1        0    16.405       75     40.0    6.564   -9.900     1.78    0.000    0.000       27        8     2084  Maize_short_Chisinau_7May_NonOptimum_26_MPI.PRM
 Tot(105)        7        5     2085    162.9    485.6   1100.1   429.00      0.0    159.6      3.3      7.0      0.0     70.5       32    260.6    203.9       99     0.000     0.000     0.000     0.000      107        0       42       25       14        8        0    15.833       72     40.1    6.354   -9.900     1.92    0.000    0.000       27        8     2085  Maize_short_Chisinau_7May_NonOptimum_26_MPI.PRM
 Tot(106)        7        5     2086    170.0    471.7   1158.0   428.00      0.0    167.5      2.5      3.1      0.0    105.1       61    267.6    207.6       91     0.000     0.000     0.000     0.000      107        0       42       25       15        0        6    15.613       69     39.8    6.219   -9.900     1.67    0.000    0.000       27        8     2086  Maize_short_Chisinau_7May_NonOptimum_26_MPI.PRM
 Tot(107)        7        5     2087    185.1    508.3   1204.6   428.00      0.0    182.5      2.6      1.5      0.0    128.1       56    260.1    201.7       92     0.000     0.000     0.000     0.000      107        0       42       25       11        8        6    15.385       68     40.2    6.192   -9.900     1.59    0.000    0.000       27        8     2087  Maize_short_Chisinau_7May_NonOptimum_26_MPI.PRM
 Tot(108)        7        5     2088    150.6    545.5   1269.9   427.00      0.0    143.7      6.9      3.2      0.0    101.0       43    261.4    204.7       84     0.000     0.000     0.000     0.000      107        0       42       25       10        7       11    14.255       62     39.6    5.642   -9.900     1.56    0.000    0.000       27        8     2088  Maize_short_Chisinau_7May_NonOptimum_26_MPI.PRM
 Tot(109)        7        5     2089    248.9    449.2   1037.8   427.00      0.0    237.5     11.4     12.9      0.0     97.8       53    251.7    193.7      100     0.000     0.000     0.000     0.000      107        0       42       25       21        1        0    15.529       75     40.0    6.215   -9.900     1.78    0.000    0.000       27        8     2089  Maize_short_Chisinau_7May_NonOptimum_26_MPI.PRM
 Tot(110)        7        5     2090    214.6    475.5   1070.5   426.00      0.0    211.5      3.1      7.8      0.0     77.6       39    267.1    206.6      100     0.000     0.000     0.000     0.000      107        0       42       25       17        3        0    15.943       75     40.1    6.393   -9.900     1.86    0.000    0.000       27        8     2090  Maize_short_Chisinau_7May_NonOptimum_26_MPI.PRM
 Tot(111)        7        5     2091    205.4    535.9   1237.0   425.00      0.0    197.5      7.9     17.1      0.0    106.8       49    289.6    224.9       90     0.000     0.000     0.000     0.000      107        0       42       25       10        3        7    15.550       67     40.0    6.213   -9.900     1.57    0.000    0.000       27        8     2091  Maize_short_Chisinau_7May_NonOptimum_26_MPI.PRM
 Tot(112)        7        5     2092    218.8    434.2   1033.9   425.00      0.0    215.2      3.6      3.9      0.0    125.2       74    251.7    193.7       98     0.000     0.000     0.000     0.000      107        0       42       25       21        3        1    15.851       73     40.2    6.373   -9.900     1.69    0.000    0.000       27        8     2092  Maize_short_Chisinau_7May_NonOptimum_26_MPI.PRM
 Tot(113)        7        5     2093    168.6    447.4   1037.9   424.00      0.0    168.4      0.2      0.0      0.0     96.4       59    268.1    208.3       98     0.000     0.000     0.000     0.000      107        0       42       25       19        4        2    16.277       73     40.2    6.537   -9.900     1.79    0.000    0.000       27        8     2093  Maize_short_Chisinau_7May_NonOptimum_26_MPI.PRM
 Tot(114)        7        5     2094    122.6    616.8   1308.7   424.00      0.0    120.6      2.0      0.0      0.0     74.3       27    263.3    205.1       78     0.000     0.000     0.000     0.000      107        0       42       25        8        8       14    12.645       54     39.2    4.952   -9.900     1.47    0.000    0.000       27        8     2094  Maize_short_Chisinau_7May_NonOptimum_26_MPI.PRM
 Tot(115)        7        5     2095    154.9    535.8   1186.6   423.00      0.0    154.1      0.8      2.9      0.0    106.9       46    246.0    194.6       82     0.000     0.000     0.000     0.000      107        0       42       25       17       19       14    12.450       55     40.3    5.017   -9.900     1.42    0.000    0.000       27        8     2095  Maize_short_Chisinau_7May_NonOptimum_26_MPI.PRM
 Tot(116)        7        5     2096    122.7    578.8   1288.0   423.00      0.0    122.4      0.3      0.0      0.0    102.0       38    223.1    174.7       76     0.000     0.000     0.000     0.000      107        0       42       25       12       14       19    11.208       47     39.4    4.419   -9.900     1.36    0.000    0.000       27        8     2096  Maize_short_Chisinau_7May_NonOptimum_26_MPI.PRM
 Tot(117)        7        5     2097    204.3    456.5   1099.5   422.00      0.0    201.0      3.3      7.5      0.0    115.6       67    271.7    207.9       98     0.000     0.000     0.000     0.000      107        0       42       25       19        1        2    16.305       74     40.0    6.525   -9.900     1.68    0.000    0.000       27        8     2097  Maize_short_Chisinau_7May_NonOptimum_26_MPI.PRM
 Tot(118)        7        5     2098    273.6    454.1   1105.0   422.00      0.0    262.2     11.4     19.7      0.0    114.4       64    270.6    209.9      100     0.000     0.000     0.000     0.000      107        0       42       25       17        2        0    16.311       75     40.1    6.548   -9.900     1.70    0.000    0.000       27        8     2098  Maize_short_Chisinau_7May_NonOptimum_26_MPI.PRM
 Tot(119)        7        5     2099    231.7    426.1    992.8   421.00      0.0    222.4      9.3     14.7      0.0     87.2       47    219.6    168.4      100     0.000     0.000     0.000     0.000      107        0       42       25       21        1        0    14.563       75     40.0    5.826   -9.900     1.90    0.000    0.000       27        8     2099  Maize_short_Chisinau_7May_NonOptimum_26_MPI.PRM
