AquaCrop 7.0 (August 2022) - Output created on (date) : 24-11-2022   at (time) : 10:01:36

    RunNr     Day1   Month1    Year1     Rain      ETo       GD     CO2      Irri   Infilt   Runoff    Drain   Upflow        E     E/Ex       Tr      TrW   Tr/Trx    SaltIn   SaltOut    SaltUp  SaltProf     Cycle   SaltStr  FertStr  WeedStr  TempStr   ExpStr   StoStr  BioMass  Brelative   HI    Y(dry)  Y(fresh)    WPet      Bin     Bout     DayN   MonthN    YearN
                                           mm       mm  degC.day    ppm        mm       mm       mm       mm       mm       mm        %       mm       mm        %    ton/ha    ton/ha    ton/ha    ton/ha      days       %        %        %        %        %        %    ton/ha        %       %    ton/ha   ton/ha    kg/m3   ton/ha   ton/ha
   Tot(1)        7        5     1981    178.8    503.2   1241.2   340.11      0.0    170.0      8.8     19.7      0.0     88.2       42    267.5    206.6       89     0.000     0.000     0.000     0.000      107        0       42       25       11        5        8    14.212       65     39.7    5.643   -9.900     1.59    0.000    0.000       27        8     1981  Maize_short_Cahul_7May_NonOptimum_26_MPI.PRM
   Tot(2)        7        5     1982    226.7    493.1   1253.0   341.22      0.0    226.0      0.7      0.0      0.0    101.4       45    280.6    216.3      100     0.000     0.000     0.000     0.000      107        0       42       25        8        3        0    16.329       74     40.0    6.536   -9.900     1.71    0.000    0.000       27        8     1982  Maize_short_Cahul_7May_NonOptimum_26_MPI.PRM
   Tot(3)        7        5     1983    290.7    494.4   1282.6   342.84      0.0    264.2     26.5     26.7      0.0    101.9       47    287.3    222.1      100     0.000     0.000     0.000     0.000      107        0       42       25        6        3        0    16.444       74     40.1    6.592   -9.900     1.69    0.000    0.000       27        8     1983  Maize_short_Cahul_7May_NonOptimum_26_MPI.PRM
   Tot(4)        7        5     1984    204.3    469.3   1125.8   344.40      0.0    202.8      1.5      3.1      0.0    133.4       69    263.3    205.4       97     0.000     0.000     0.000     0.000      107        0       42       25       13        2        2    15.311       73     40.1    6.136   -9.900     1.55    0.000    0.000       27        8     1984  Maize_short_Cahul_7May_NonOptimum_26_MPI.PRM
   Tot(5)        7        5     1985    289.7    484.3   1225.0   345.87      0.0    263.2     26.5     42.7      0.0    114.2       55    279.7    214.5      100     0.000     0.000     0.000     0.000      107        0       42       25       10        1        0    15.946       75     40.0    6.379   -9.900     1.62    0.000    0.000       27        8     1985  Maize_short_Cahul_7May_NonOptimum_26_MPI.PRM
   Tot(6)        7        5     1986    152.5    543.3   1305.4   347.19      0.0    151.8      0.7      0.0      0.0    106.4       45    261.7    205.8       84     0.000     0.000     0.000     0.000      107        0       42       25        5        8       11    13.631       61     39.6    5.397   -9.900     1.47    0.000    0.000       27        8     1986  Maize_short_Cahul_7May_NonOptimum_26_MPI.PRM
   Tot(7)        7        5     1987    241.4    495.3   1193.7   348.98      0.0    233.0      8.4      0.0      0.0     96.8       50    305.7    234.9       99     0.000     0.000     0.000     0.000      107        0       42       25       13        4        1    16.129       74     40.1    6.467   -9.900     1.61    0.000    0.000       27        8     1987  Maize_short_Cahul_7May_NonOptimum_26_MPI.PRM
   Tot(8)        7        5     1988    149.9    506.2   1303.3   351.45      0.0    148.7      1.2      3.3      0.0    130.7       64    236.1    186.4       80     0.000     0.000     0.000     0.000      107        0       42       25        8        8       18    12.055       53     39.2    4.726   -9.900     1.29    0.000    0.000       27        8     1988  Maize_short_Cahul_7May_NonOptimum_26_MPI.PRM
   Tot(9)        7        5     1989    201.9    495.5   1205.1   352.89      0.0    201.5      0.4      0.0      0.0    102.1       51    296.7    228.1       97     0.000     0.000     0.000     0.000      107        0       42       25       13        4        2    16.064       72     40.2    6.459   -9.900     1.62    0.000    0.000       27        8     1989  Maize_short_Cahul_7May_NonOptimum_26_MPI.PRM
  Tot(10)        7        5     1990    134.9    531.5   1218.0   354.16      0.0    134.6      0.3      0.0      0.0    122.0       53    234.0    183.8       79     0.000     0.000     0.000     0.000      107        0       42       25       13       13       17    11.869       53     39.8    4.727   -9.900     1.33    0.000    0.000       27        8     1990  Maize_short_Cahul_7May_NonOptimum_26_MPI.PRM
  Tot(11)        7        5     1991    385.6    438.1   1229.6   355.48      0.0    339.7     45.9     69.7      0.0    119.1       77    296.0    227.1      100     0.000     0.000     0.000     0.000      107        0       42       25       15        0        0    17.345       75     40.0    6.942   -9.900     1.67    0.000    0.000       27        8     1991  Maize_short_Cahul_7May_NonOptimum_26_MPI.PRM
  Tot(12)        7        5     1992    170.3    523.5   1259.8   356.27      0.0    170.0      0.3      0.0      0.0    127.8       64    262.4    205.0       81     0.000     0.000     0.000     0.000      107        0       42       25       14        6       14    13.317       59     39.2    5.216   -9.900     1.34    0.000    0.000       27        8     1992  Maize_short_Cahul_7May_NonOptimum_26_MPI.PRM
  Tot(13)        7        5     1993    212.3    519.6   1215.6   356.95      0.0    200.6     11.7     23.7      0.0    126.2       61    265.1    205.2       86     0.000     0.000     0.000     0.000      107        0       42       25       10        6       10    13.655       63     39.7    5.418   -9.900     1.38    0.000    0.000       27        8     1993  Maize_short_Cahul_7May_NonOptimum_26_MPI.PRM
  Tot(14)        7        5     1994    227.8    533.6   1328.9   358.63      0.0    212.2     15.6     35.4      0.0     99.1       42    269.6    211.7       87     0.000     0.000     0.000     0.000      107        0       42       25        8       11        9    13.788       60     39.7    5.474   -9.900     1.48    0.000    0.000       27        8     1994  Maize_short_Cahul_7May_NonOptimum_26_MPI.PRM
  Tot(15)        7        5     1995    166.2    526.8   1338.7   360.62      0.0    162.9      3.3      3.5      0.0    105.2       47    265.1    206.7       85     0.000     0.000     0.000     0.000      107        0       42       25        7       10       13    13.537       58     39.7    5.372   -9.900     1.45    0.000    0.000       27        8     1995  Maize_short_Cahul_7May_NonOptimum_26_MPI.PRM
  Tot(16)        7        5     1996    151.7    562.1   1315.4   362.37      0.0    142.1      9.6      0.0      0.0    116.4       36    182.9    146.2       79     0.000     0.000     0.000     0.000      107        0       42       25        7       26       16     8.755       39     40.3    3.527   -9.900     1.18    0.000    0.000       27        8     1996  Maize_short_Cahul_7May_NonOptimum_26_MPI.PRM
  Tot(17)        7        5     1997    419.7    471.7   1250.0   363.47      0.0    375.1     44.6      0.3      0.0    121.8       59    281.7    217.7      100     0.000     0.000     0.000     0.000      107        0       42       25       10        2        0    17.133       75     40.0    6.859   -9.900     1.70    0.000    0.000       27        8     1997  Maize_short_Cahul_7May_NonOptimum_26_MPI.PRM
  Tot(18)        7        5     1998    168.8    516.5   1294.8   366.50      0.0    167.9      0.9      2.6      0.0    120.0       61    269.0    208.8       84     0.000     0.000     0.000     0.000      107        0       42       25       12        4       13    13.732       60     39.4    5.413   -9.900     1.39    0.000    0.000       27        8     1998  Maize_short_Cahul_7May_NonOptimum_26_MPI.PRM
  Tot(19)        7        5     1999    300.8    546.7   1379.6   368.14      0.0    283.6     17.2      0.0      0.0    112.6       50    332.5    256.5       98     0.000     0.000     0.000     0.000      107        0       42       25        7        4        2    16.881       72     40.1    6.772   -9.900     1.52    0.000    0.000       27        8     1999  Maize_short_Cahul_7May_NonOptimum_26_MPI.PRM
  Tot(20)        7        5     2000     73.9    617.8   1328.9   369.41      0.0     73.9      0.0      0.0      0.0     81.9       24    209.2    167.7       77     0.000     0.000     0.000     0.000      106        0       42       25        7       24       20     9.938       44     39.6    3.932   -9.900     1.36    0.000    0.000       27        8     2000  Maize_short_Cahul_7May_NonOptimum_26_MPI.PRM
  Tot(21)        7        5     2001    201.1    552.7   1318.6   371.07      0.0    172.7     28.4     17.8      0.0    115.8       52    262.1    203.1       80     0.000     0.000     0.000     0.000      107        0       42       25       10        3       17    13.023       56     39.0    5.080   -9.900     1.34    0.000    0.000       27        8     2001  Maize_short_Cahul_7May_NonOptimum_26_MPI.PRM
  Tot(22)        7        5     2002    297.9    563.7   1394.2   373.16      0.0    259.4     38.5      0.0      0.0    114.6       42    288.9    226.0       92     0.000     0.000     0.000     0.000      107        0       42       25        5       24        4    14.860       63     40.8    6.068   -9.900     1.50    0.000    0.000       27        8     2002  Maize_short_Cahul_7May_NonOptimum_26_MPI.PRM
  Tot(23)        7        5     2003    102.9    602.8   1413.4   375.80      0.0    102.9      0.0      0.0      0.0    101.7       29    219.7    176.9       82     0.000     0.000     0.000     0.000      107        0       42       25        3       26       16    11.268       48     40.1    4.516   -9.900     1.41    0.000    0.000       27        8     2003  Maize_short_Cahul_7May_NonOptimum_26_MPI.PRM
  Tot(24)        7        5     2004    257.1    519.7   1224.3   377.49      0.0    253.2      3.9      0.0      0.0    135.8       63    301.4    233.4       95     0.000     0.000     0.000     0.000      107        0       42       25       12       13        3    16.024       69     40.4    6.470   -9.900     1.48    0.000    0.000       27        8     2004  Maize_short_Cahul_7May_NonOptimum_26_MPI.PRM
  Tot(25)        7        5     2005    378.7    520.8   1288.0   379.80      0.0    361.0     17.7     10.1      0.0    144.1       69    326.2    252.0      100     0.000     0.000     0.000     0.000      107        0       42       25        8        3        0    17.524       75     40.1    7.025   -9.900     1.49    0.000    0.000       27        8     2005  Maize_short_Cahul_7May_NonOptimum_26_MPI.PRM
  Tot(26)        7        5     2006    163.6    573.8   1322.8   381.90      0.0    155.9      7.7     15.6      0.0    122.3       46    230.5    183.8       76     0.000     0.000     0.000     0.000      107        0       42       25        7       19       18    11.150       47     39.9    4.447   -9.900     1.26    0.000    0.000       27        8     2006  Maize_short_Cahul_7May_NonOptimum_26_MPI.PRM
  Tot(27)        7        5     2007    116.6    680.4   1503.0   383.77      0.0    115.3      1.3      0.0      0.0    111.5       28    210.4    169.0       75     0.000     0.000     0.000     0.000      107        0       42       25        1       28       19     8.812       37     40.1    3.531   -9.900     1.10    0.000    0.000       27        8     2007  Maize_short_Cahul_7May_NonOptimum_26_MPI.PRM
  Tot(28)        7        5     2008    125.7    607.1   1356.8   385.59      0.0    125.7      0.0      0.0      0.0    100.0       36    250.4    197.2       77     0.000     0.000     0.000     0.000      107        0       42       25        4       20       19    11.702       49     39.6    4.636   -9.900     1.32    0.000    0.000       27        8     2008  Maize_short_Cahul_7May_NonOptimum_26_MPI.PRM
  Tot(29)        7        5     2009    135.6    616.1   1391.5   387.37      0.0    135.0      0.6      0.0      0.0     91.0       31    264.7    207.9       82     0.000     0.000     0.000     0.000      107        0       42       25        5       12       17    12.227       51     39.5    4.828   -9.900     1.36    0.000    0.000       27        8     2009  Maize_short_Cahul_7May_NonOptimum_26_MPI.PRM
  Tot(30)        7        5     2010    259.9    550.9   1434.7   389.85      0.0    241.6     18.3      0.8      0.0    128.8       57    321.2    247.6       94     0.000     0.000     0.000     0.000      107        0       42       25        7        2        5    16.366       70     39.9    6.534   -9.900     1.45    0.000    0.000       27        8     2010  Maize_short_Cahul_7May_NonOptimum_26_MPI.PRM
  Tot(31)        7        5     2011    181.1    568.4   1367.2   391.63      0.0    176.8      4.3      2.4      0.0    123.9       52    273.1    213.5       82     0.000     0.000     0.000     0.000      107        0       42       25        4        6       13    13.765       59     39.7    5.462   -9.900     1.38    0.000    0.000       27        8     2011  Maize_short_Cahul_7May_NonOptimum_26_MPI.PRM
  Tot(32)        7        5     2012    233.1    640.5   1478.9   393.82      0.0    227.4      5.7      5.3      0.0    161.6       56    262.1    205.8       75     0.000     0.000     0.000     0.000      107        0       42       25        5       18       20    11.412       48     39.6    4.515   -9.900     1.07    0.000    0.000       27        8     2012  Maize_short_Cahul_7May_NonOptimum_26_MPI.PRM
  Tot(33)        7        5     2013    235.4    581.7   1439.0   396.48      0.0    222.9     12.5      0.0      0.0    123.0       50    300.1    234.2       85     0.000     0.000     0.000     0.000      107        0       42       25        3        6       11    14.896       62     39.4    5.868   -9.900     1.39    0.000    0.000       27        8     2013  Maize_short_Cahul_7May_NonOptimum_26_MPI.PRM
  Tot(34)        7        5     2014    237.3    550.5   1373.2   398.55      0.0    233.6      3.7      5.5      0.0    144.3       67    295.7    228.3       86     0.000     0.000     0.000     0.000      107        0       42       25        5        7       10    14.986       63     39.8    5.965   -9.900     1.36    0.000    0.000       27        8     2014  Maize_short_Cahul_7May_NonOptimum_26_MPI.PRM
  Tot(35)        7        5     2015    139.4    626.7   1394.8   401.00      0.0    138.0      1.4      0.0      0.0     98.5       32    250.1    198.3       78     0.000     0.000     0.000     0.000      107        0       42       25        5       12       14    11.711       49     39.4    4.610   -9.900     1.32    0.000    0.000       27        8     2015  Maize_short_Cahul_7May_NonOptimum_26_MPI.PRM
  Tot(36)        7        5     2016    181.5    571.0   1373.9   403.00      0.0    180.8      0.7      0.3      0.0    147.1       66    254.4    199.1       74     0.000     0.000     0.000     0.000      107        0       42       25        8       11       21    11.927       50     39.3    4.686   -9.900     1.17    0.000    0.000       27        8     2016  Maize_short_Cahul_7May_NonOptimum_26_MPI.PRM
  Tot(37)        7        5     2017    266.4    570.6   1365.8   405.00      0.0    238.1     28.3      0.0      0.0    103.1       46    341.9    264.1       94     0.000     0.000     0.000     0.000      107        0       42       25        7        5        5    16.626       70     40.1    6.668   -9.900     1.50    0.000    0.000       27        8     2017  Maize_short_Cahul_7May_NonOptimum_26_MPI.PRM
  Tot(38)        7        5     2018    180.2    562.5   1480.2   408.00      0.0    173.9      6.3      1.1      0.0     97.7       37    290.0    226.7       91     0.000     0.000     0.000     0.000      107        0       42       25        3       10        6    15.790       66     40.1    6.326   -9.900     1.63    0.000    0.000       27        8     2018  Maize_short_Cahul_7May_NonOptimum_26_MPI.PRM
  Tot(39)        7        5     2019    187.7    591.3   1433.5   410.00      0.0    186.5      1.2      1.0      0.0    157.7       62    253.3    199.6       76     0.000     0.000     0.000     0.000      107        0       42       25        3       15       19    12.340       51     39.4    4.867   -9.900     1.18    0.000    0.000       27        8     2019  Maize_short_Cahul_7May_NonOptimum_26_MPI.PRM
  Tot(40)        7        5     2020    239.3    458.3   1142.1   412.00      0.0    232.7      6.6     14.5      0.0    115.2       70    276.4    213.7       93     0.000     0.000     0.000     0.000      107        0       42       25       14        1        5    15.877       70     40.0    6.344   -9.900     1.62    0.000    0.000       27        8     2020  Maize_short_Cahul_7May_NonOptimum_26_MPI.PRM
  Tot(41)        7        5     2021    147.1    472.3   1064.6   414.00      0.0    141.9      5.2      0.0      0.0     90.8       47    257.7    199.2       94     0.000     0.000     0.000     0.000      107        0       42       25       20       11        4    15.315       69     40.5    6.204   -9.900     1.78    0.000    0.000       27        8     2021  Maize_short_Cahul_7May_NonOptimum_26_MPI.PRM
  Tot(42)        7        5     2022    193.3    493.6   1127.0   417.00      0.0    183.7      9.6     15.0      0.0    124.0       73    261.7    203.4       83     0.000     0.000     0.000     0.000      107        0       42       25       19        2       13    13.632       60     39.5    5.380   -9.900     1.39    0.000    0.000       27        8     2022  Maize_short_Cahul_7May_NonOptimum_26_MPI.PRM
  Tot(43)        7        5     2023     98.2    582.5   1309.9   419.00      0.0     98.2      0.0      0.0      0.0    105.2       34    205.1    162.2       77     0.000     0.000     0.000     0.000      107        0       42       25        6       21       20    10.084       44     40.1    4.045   -9.900     1.30    0.000    0.000       27        8     2023  Maize_short_Cahul_7May_NonOptimum_26_MPI.PRM
  Tot(44)        7        5     2024    163.0    491.5   1100.9   421.00      0.0    162.3      0.7      1.1      0.0    100.6       50    264.2    205.4       93     0.000     0.000     0.000     0.000      107        0       42       25       14        9        5    15.299       68     40.2    6.153   -9.900     1.69    0.000    0.000       27        8     2024  Maize_short_Cahul_7May_NonOptimum_26_MPI.PRM
  Tot(45)        7        5     2025    187.9    491.7   1203.3   423.00      0.0    175.9     12.0     24.5      0.0    123.6       55    220.1    174.3       83     0.000     0.000     0.000     0.000      107        0       42       25       12       21       12    12.378       53     40.3    4.995   -9.900     1.45    0.000    0.000       27        8     2025  Maize_short_Cahul_7May_NonOptimum_26_MPI.PRM
  Tot(46)        7        5     2026    128.5    544.8   1120.8   424.00      0.0    127.3      1.2      0.0      0.0     67.8       30    276.8    214.2       88     0.000     0.000     0.000     0.000      107        0       42       25       16        6        8    14.443       64     39.9    5.765   -9.900     1.67    0.000    0.000       27        8     2026  Maize_short_Cahul_7May_NonOptimum_26_MPI.PRM
  Tot(47)        7        5     2027    148.8    476.7   1112.3   426.00      0.0    146.8      2.0      0.4      0.0    100.7       52    255.9    197.6       93     0.000     0.000     0.000     0.000      107        0       42       25       14        3        5    15.261       70     40.1    6.123   -9.900     1.72    0.000    0.000       27        8     2027  Maize_short_Cahul_7May_NonOptimum_26_MPI.PRM
  Tot(48)        7        5     2028    296.8    420.1    971.3   428.00      0.0    266.1     30.7     43.1      0.0    108.3       68    243.7    188.1      100     0.000     0.000     0.000     0.000      107        0       42       25       22        1        0    15.691       75     40.0    6.282   -9.900     1.78    0.000    0.000       27        8     2028  Maize_short_Cahul_7May_NonOptimum_26_MPI.PRM
  Tot(49)        7        5     2029    167.1    470.7   1106.6   429.00      0.0    162.4      4.7      0.0      0.0     84.6       48    274.4    212.9       96     0.000     0.000     0.000     0.000      107        0       42       25       17        3        3    15.863       71     40.0    6.343   -9.900     1.77    0.000    0.000       27        8     2029  Maize_short_Cahul_7May_NonOptimum_26_MPI.PRM
  Tot(50)        7        5     2030    115.6    540.1   1228.5   431.00      0.0    115.6      0.0      0.0      0.0     96.6       47    245.1    191.4       78     0.000     0.000     0.000     0.000      107        0       42       25       12        5       19    12.359       53     38.9    4.804   -9.900     1.41    0.000    0.000       27        8     2030  Maize_short_Cahul_7May_NonOptimum_26_MPI.PRM
  Tot(51)        7        5     2031    210.7    508.2   1190.6   432.00      0.0    196.0     14.7     21.3      0.0    103.7       45    271.2    211.0       95     0.000     0.000     0.000     0.000      107        0       42       25       11       13        3    15.917       69     40.4    6.438   -9.900     1.72    0.000    0.000       27        8     2031  Maize_short_Cahul_7May_NonOptimum_26_MPI.PRM
  Tot(52)        7        5     2032    255.6    443.5   1024.5   433.00      0.0    225.1     30.5     63.6      0.0    101.3       68    266.7    206.5       94     0.000     0.000     0.000     0.000      107        0       42       25       21        1        5    15.822       71     40.0    6.335   -9.900     1.72    0.000    0.000       27        8     2032  Maize_short_Cahul_7May_NonOptimum_26_MPI.PRM
  Tot(53)        7        5     2033    296.2    449.1   1036.7   435.00      0.0    240.5     55.7     18.8      0.0     80.7       39    231.3    178.0      100     0.000     0.000     0.000     0.000      107        0       42       25       17        2        0    15.841       74     40.0    6.336   -9.900     2.03    0.000    0.000       27        8     2033  Maize_short_Cahul_7May_NonOptimum_26_MPI.PRM
  Tot(54)        7        5     2034    176.1    532.6   1214.2   436.00      0.0    170.2      5.9      0.0      0.0     97.1       41    265.0    207.3       89     0.000     0.000     0.000     0.000      107        0       42       25       12        9        8    14.620       62     40.1    5.861   -9.900     1.62    0.000    0.000       27        8     2034  Maize_short_Cahul_7May_NonOptimum_26_MPI.PRM
  Tot(55)        7        5     2035    149.8    496.8   1123.8   437.00      0.0    145.5      4.3     12.5      0.0    101.8       54    253.5    197.9       84     0.000     0.000     0.000     0.000      107        0       42       25       14        9       12    14.087       61     39.9    5.614   -9.900     1.58    0.000    0.000       27        8     2035  Maize_short_Cahul_7May_NonOptimum_26_MPI.PRM
  Tot(56)        7        5     2036    179.1    478.0   1187.4   438.00      0.0    176.9      2.2      0.0      0.0    113.0       58    267.4    206.9       95     0.000     0.000     0.000     0.000      107        0       42       25       13        7        4    15.944       70     40.3    6.427   -9.900     1.69    0.000    0.000       27        8     2036  Maize_short_Cahul_7May_NonOptimum_26_MPI.PRM
  Tot(57)        7        5     2037    187.2    466.4   1106.9   438.00      0.0    178.2      9.0     11.2      0.0     82.4       43    262.9    203.5      100     0.000     0.000     0.000     0.000      107        0       42       25       15        3        0    16.468       74     40.0    6.595   -9.900     1.91    0.000    0.000       27        8     2037  Maize_short_Cahul_7May_NonOptimum_26_MPI.PRM
  Tot(58)        7        5     2038    184.0    501.6   1182.2   439.00      0.0    176.5      7.5      3.0      0.0     80.5       39    287.0    222.7       97     0.000     0.000     0.000     0.000      107        0       42       25       13       11        2    16.365       71     40.6    6.652   -9.900     1.81    0.000    0.000       27        8     2038  Maize_short_Cahul_7May_NonOptimum_26_MPI.PRM
  Tot(59)        7        5     2039    134.3    552.5   1180.6   440.00      0.0    126.7      7.6      0.0      0.0     93.2       39    229.1    180.0       77     0.000     0.000     0.000     0.000      107        0       42       25       12       15       15    11.740       51     40.1    4.702   -9.900     1.46    0.000    0.000       27        8     2039  Maize_short_Cahul_7May_NonOptimum_26_MPI.PRM
  Tot(60)        7        5     2040    106.5    549.4   1176.1   440.00      0.0    102.7      3.8      6.5      0.0    109.7       43    207.1    163.3       78     0.000     0.000     0.000     0.000      104        0       42       25       14       13       19    10.862       47     39.3    4.271   -9.900     1.35    0.000    0.000       27        8     2040  Maize_short_Cahul_7May_NonOptimum_26_MPI.PRM
  Tot(61)        7        5     2041    134.8    575.2   1188.8   441.00      0.0    132.1      2.7      0.0      0.0    107.6       45    249.3    193.3       78     0.000     0.000     0.000     0.000      107        0       42       25       13        5       19    12.108       52     38.9    4.706   -9.900     1.32    0.000    0.000       27        8     2041  Maize_short_Cahul_7May_NonOptimum_26_MPI.PRM
  Tot(62)        7        5     2042    208.5    495.0   1197.8   441.00      0.0    188.5     20.0      0.0      0.0     92.9       40    242.5    187.7       92     0.000     0.000     0.000     0.000      107        0       42       25       10       10        5    14.800       65     40.3    5.957   -9.900     1.78    0.000    0.000       27        8     2042  Maize_short_Cahul_7May_NonOptimum_26_MPI.PRM
  Tot(63)        7        5     2043    194.5    479.5   1066.3   441.00      0.0    173.0     21.5     23.8      0.0    102.6       56    258.4    199.9       92     0.000     0.000     0.000     0.000      107        0       42       25       20        2        6    15.202       69     40.0    6.078   -9.900     1.68    0.000    0.000       27        8     2043  Maize_short_Cahul_7May_NonOptimum_26_MPI.PRM
  Tot(64)        7        5     2044    260.4    447.0   1110.3   442.00      0.0    247.2     13.2      0.0      0.0     66.6       31    233.6    180.9      100     0.000     0.000     0.000     0.000      107        0       42       25       16        4        0    16.024       74     40.1    6.424   -9.900     2.14    0.000    0.000       27        8     2044  Maize_short_Cahul_7May_NonOptimum_26_MPI.PRM
  Tot(65)        7        5     2045    246.1    435.5   1064.3   442.00      0.0    235.6     10.5     17.3      0.0    110.9       67    263.8    205.4      100     0.000     0.000     0.000     0.000      107        0       42       25       19        3        0    16.800       75     40.1    6.732   -9.900     1.80    0.000    0.000       27        8     2045  Maize_short_Cahul_7May_NonOptimum_26_MPI.PRM
  Tot(66)        7        5     2046    152.8    440.1   1078.6   442.00      0.0    150.5      2.3      4.1      0.0     90.0       53    255.5    196.4       95     0.000     0.000     0.000     0.000      107        0       42       25       18       10        4    15.767       69     40.5    6.384   -9.900     1.85    0.000    0.000       27        8     2046  Maize_short_Cahul_7May_NonOptimum_26_MPI.PRM
  Tot(67)        7        5     2047    179.1    459.3   1121.3   442.00      0.0    174.3      4.8      2.1      0.0     97.6       56    273.2    211.9       97     0.000     0.000     0.000     0.000      107        0       42       25       15        4        2    16.471       73     40.3    6.631   -9.900     1.79    0.000    0.000       27        8     2047  Maize_short_Cahul_7May_NonOptimum_26_MPI.PRM
  Tot(68)        7        5     2048    241.0    495.6   1188.4   442.00      0.0    231.1      9.9      0.0      0.0    116.3       53    277.2    214.5      100     0.000     0.000     0.000     0.000      107        0       42       25        9        5        0    16.946       74     40.2    6.812   -9.900     1.73    0.000    0.000       27        8     2048  Maize_short_Cahul_7May_NonOptimum_26_MPI.PRM
  Tot(69)        7        5     2049    158.2    563.6   1191.5   443.00      0.0    153.4      4.8      3.6      0.0    116.6       49    243.8    193.2       80     0.000     0.000     0.000     0.000      107        0       42       25       11       13       13    12.469       55     40.0    4.989   -9.900     1.38    0.000    0.000       27        8     2049  Maize_short_Cahul_7May_NonOptimum_26_MPI.PRM
  Tot(70)        7        5     2050    183.9    484.1   1141.4   443.00      0.0    180.8      3.1      2.7      0.0     89.1       46    281.8    217.0       98     0.000     0.000     0.000     0.000      107        0       42       25       12        4        2    16.423       73     40.2    6.595   -9.900     1.78    0.000    0.000       27        8     2050  Maize_short_Cahul_7May_NonOptimum_26_MPI.PRM
  Tot(71)        7        5     2051    142.5    498.2   1130.1   443.00      0.0    139.3      3.2      2.2      0.0    101.4       51    255.5    199.2       87     0.000     0.000     0.000     0.000      107        0       42       25       13        6       10    14.616       63     39.9    5.837   -9.900     1.64    0.000    0.000       27        8     2051  Maize_short_Cahul_7May_NonOptimum_26_MPI.PRM
  Tot(72)        7        5     2052    139.8    484.8   1140.1   443.00      0.0    139.1      0.7      0.0      0.0     92.8       38    229.5    180.1       94     0.000     0.000     0.000     0.000      107        0       42       25       13       17        3    14.744       65     40.5    5.977   -9.900     1.85    0.000    0.000       27        8     2052  Maize_short_Cahul_7May_NonOptimum_26_MPI.PRM
  Tot(73)        7        5     2053    168.4    466.7   1097.4   443.00      0.0    160.6      7.8     24.7      0.0    103.5       60    250.0    194.8       88     0.000     0.000     0.000     0.000      107        0       42       25       17        8        9    14.587       65     40.0    5.832   -9.900     1.65    0.000    0.000       27        8     2053  Maize_short_Cahul_7May_NonOptimum_26_MPI.PRM
  Tot(74)        7        5     2054    197.6    504.8   1105.1   443.00      0.0    191.6      6.0     12.0      0.0     99.7       51    286.6    221.7       95     0.000     0.000     0.000     0.000      107        0       42       25       16        5        4    16.071       70     40.1    6.445   -9.900     1.67    0.000    0.000       27        8     2054  Maize_short_Cahul_7May_NonOptimum_26_MPI.PRM
  Tot(75)        7        5     2055    167.3    531.8   1200.3   443.00      0.0    161.8      5.5     11.4      0.0    122.2       57    246.9    193.3       80     0.000     0.000     0.000     0.000      107        0       42       25       14       14       15    12.928       56     40.1    5.190   -9.900     1.41    0.000    0.000       27        8     2055  Maize_short_Cahul_7May_NonOptimum_26_MPI.PRM
  Tot(76)        7        5     2056    147.2    499.3   1144.6   442.00      0.0    145.9      1.3      6.4      0.0    111.4       59    249.5    193.4       83     0.000     0.000     0.000     0.000      107        0       42       25       14        8       13    13.814       60     39.9    5.506   -9.900     1.53    0.000    0.000       27        8     2056  Maize_short_Cahul_7May_NonOptimum_26_MPI.PRM
  Tot(77)        7        5     2057    167.7    502.3   1126.0   442.00      0.0    156.5     11.2     22.4      0.0     91.7       44    257.7    199.7       90     0.000     0.000     0.000     0.000      107        0       42       25       15        4        7    15.092       67     40.0    6.034   -9.900     1.73    0.000    0.000       27        8     2057  Maize_short_Cahul_7May_NonOptimum_26_MPI.PRM
  Tot(78)        7        5     2058     99.9    613.2   1314.5   442.00      0.0     98.9      1.0      0.0      0.0     93.9       25    200.9    163.2       82     0.000     0.000     0.000     0.000      107        0       42       25        8       33       13     9.962       42     40.6    4.041   -9.900     1.37    0.000    0.000       27        8     2058  Maize_short_Cahul_7May_NonOptimum_26_MPI.PRM
  Tot(79)        7        5     2059    341.0    490.8   1169.5   442.00      0.0    267.1     73.9      2.0      0.0     91.7       42    276.7    213.3      100     0.000     0.000     0.000     0.000      107        0       42       25       14        5        0    16.873       74     40.1    6.766   -9.900     1.84    0.000    0.000       27        8     2059  Maize_short_Cahul_7May_NonOptimum_26_MPI.PRM
  Tot(80)        7        5     2060    158.2    470.5   1134.3   442.00      0.0    153.9      4.3      0.0      0.0     95.5       56    253.8    197.2       86     0.000     0.000     0.000     0.000      107        0       42       25       18        1        9    14.911       65     39.6    5.909   -9.900     1.69    0.000    0.000       27        8     2060  Maize_short_Cahul_7May_NonOptimum_26_MPI.PRM
  Tot(81)        7        5     2061    231.8    504.1   1171.8   441.00      0.0    197.2     34.6     37.3      0.0     87.9       41    275.9    214.0       93     0.000     0.000     0.000     0.000      107        0       42       25       13       13        5    15.954       68     40.7    6.500   -9.900     1.79    0.000    0.000       27        8     2061  Maize_short_Cahul_7May_NonOptimum_26_MPI.PRM
  Tot(82)        7        5     2062    175.7    409.5    940.2   441.00      0.0    173.5      2.2      4.4      0.0     95.7       62    232.2    178.7      100     0.000     0.000     0.000     0.000      107        0       42       25       23        1        0    15.596       75     40.0    6.243   -9.900     1.90    0.000    0.000       27        8     2062  Maize_short_Cahul_7May_NonOptimum_26_MPI.PRM
  Tot(83)        7        5     2063    209.7    504.6   1163.6   441.00      0.0    198.2     11.5     11.3      0.0     87.6       43    281.4    218.6       93     0.000     0.000     0.000     0.000      107        0       42       25       14        9        5    15.526       67     40.3    6.262   -9.900     1.70    0.000    0.000       27        8     2063  Maize_short_Cahul_7May_NonOptimum_26_MPI.PRM
  Tot(84)        7        5     2064    175.4    493.2   1112.3   440.00      0.0    168.8      6.6      1.8      0.0    105.6       53    265.0    207.9       91     0.000     0.000     0.000     0.000      107        0       42       25       17        6        6    15.278       66     40.1    6.133   -9.900     1.65    0.000    0.000       27        8     2064  Maize_short_Cahul_7May_NonOptimum_26_MPI.PRM
  Tot(85)        7        5     2065    179.4    425.2   1043.8   440.00      0.0    178.1      1.3      0.0      0.0     77.1       38    217.2    167.4      100     0.000     0.000     0.000     0.000      107        0       42       25       19        4        0    15.696       74     40.0    6.284   -9.900     2.14    0.000    0.000       27        8     2065  Maize_short_Cahul_7May_NonOptimum_26_MPI.PRM
  Tot(86)        7        5     2066    196.2    457.7   1054.4   440.00      0.0    189.0      7.2     10.7      0.0     92.8       54    275.2    214.3       98     0.000     0.000     0.000     0.000      107        0       42       25       16        5        1    16.616       73     40.2    6.682   -9.900     1.82    0.000    0.000       27        8     2066  Maize_short_Cahul_7May_NonOptimum_26_MPI.PRM
  Tot(87)        7        5     2067    289.5    397.4    918.8   439.00      0.0    254.5     35.0     16.6      0.0     84.1       49    207.7    159.4      100     0.000     0.000     0.000     0.000      107        0       42       25       26        2        0    15.361       75     40.1    6.153   -9.900     2.11    0.000    0.000       27        8     2067  Maize_short_Cahul_7May_NonOptimum_26_MPI.PRM
  Tot(88)        7        5     2068    251.7    442.9   1047.5   439.00      0.0    231.6     20.1     36.5      0.0    132.4       85    254.7    198.4       94     0.000     0.000     0.000     0.000      107        0       42       25       20        3        5    14.815       70     40.1    5.940   -9.900     1.53    0.000    0.000       27        8     2068  Maize_short_Cahul_7May_NonOptimum_26_MPI.PRM
  Tot(89)        7        5     2069    277.1    465.0   1172.6   438.00      0.0    256.5     20.6     19.5      0.0    110.0       57    272.5    209.6      100     0.000     0.000     0.000     0.000      107        0       42       25       11        7        0    16.822       74     40.3    6.771   -9.900     1.77    0.000    0.000       27        8     2069  Maize_short_Cahul_7May_NonOptimum_26_MPI.PRM
  Tot(90)        7        5     2070    133.7    529.2   1235.4   437.00      0.0    133.3      0.4      0.0      0.0    100.5       41    234.3    186.2       83     0.000     0.000     0.000     0.000      107        0       42       25        9       23       12    12.608       54     40.6    5.119   -9.900     1.53    0.000    0.000       27        8     2070  Maize_short_Cahul_7May_NonOptimum_26_MPI.PRM
  Tot(91)        7        5     2071    199.0    529.6   1208.8   437.00      0.0    189.4      9.6      8.5      0.0    110.8       50    263.8    204.6       87     0.000     0.000     0.000     0.000      107        0       42       25       10        6        9    14.360       61     39.9    5.723   -9.900     1.53    0.000    0.000       27        8     2071  Maize_short_Cahul_7May_NonOptimum_26_MPI.PRM
  Tot(92)        7        5     2072    160.5    526.5   1252.0   436.00      0.0    159.8      0.7      1.9      0.0    125.5       62    254.1    198.3       81     0.000     0.000     0.000     0.000      107        0       42       25       10        4       15    13.432       57     39.3    5.277   -9.900     1.39    0.000    0.000       27        8     2072  Maize_short_Cahul_7May_NonOptimum_26_MPI.PRM
  Tot(93)        7        5     2073    186.8    534.7   1195.1   436.00      0.0    136.0     50.8      0.0      0.0     79.9       36    274.9    213.3       87     0.000     0.000     0.000     0.000      107        0       42       25       14        5       10    14.869       63     39.7    5.908   -9.900     1.67    0.000    0.000       27        8     2073  Maize_short_Cahul_7May_NonOptimum_26_MPI.PRM
  Tot(94)        7        5     2074    150.5    501.2   1211.4   435.00      0.0    149.3      1.2      0.0      0.0     92.9       41    240.2    188.1       87     0.000     0.000     0.000     0.000      107        0       42       25       11       11        9    14.242       61     40.1    5.713   -9.900     1.71    0.000    0.000       27        8     2074  Maize_short_Cahul_7May_NonOptimum_26_MPI.PRM
  Tot(95)        7        5     2075    238.4    494.1   1144.0   435.00      0.0    228.1     10.3      3.3      0.0     99.5       50    293.2    226.3      100     0.000     0.000     0.000     0.000      107        0       42       25       16        7        0    16.510       74     40.1    6.615   -9.900     1.68    0.000    0.000       27        8     2075  Maize_short_Cahul_7May_NonOptimum_26_MPI.PRM
  Tot(96)        7        5     2076    228.5    530.5   1253.7   434.00      0.0    202.8     25.7      1.2      0.0    115.4       49    281.9    222.3       93     0.000     0.000     0.000     0.000      107        0       42       25        8       22        5    15.296       65     40.9    6.251   -9.900     1.57    0.000    0.000       27        8     2076  Maize_short_Cahul_7May_NonOptimum_26_MPI.PRM
  Tot(97)        7        5     2077    132.5    561.0   1217.6   433.00      0.0    130.6      1.9      0.0      0.0    100.5       40    251.4    196.9       81     0.000     0.000     0.000     0.000      107        0       42       25       12       12       14    13.064       56     39.9    5.208   -9.900     1.48    0.000    0.000       27        8     2077  Maize_short_Cahul_7May_NonOptimum_26_MPI.PRM
  Tot(98)        7        5     2078    141.3    478.9   1149.9   433.00      0.0    135.6      5.7      7.5      0.0     72.6       37    257.0    198.9       93     0.000     0.000     0.000     0.000      107        0       42       25       13        9        5    15.033       67     40.3    6.063   -9.900     1.84    0.000    0.000       27        8     2078  Maize_short_Cahul_7May_NonOptimum_26_MPI.PRM
  Tot(99)        7        5     2079    146.1    447.8   1048.4   432.00      0.0    144.2      1.9      2.5      0.0    103.5       60    246.1    191.0       94     0.000     0.000     0.000     0.000      107        0       42       25       17        2        5    15.306       70     40.0    6.120   -9.900     1.75    0.000    0.000       27        8     2079  Maize_short_Cahul_7May_NonOptimum_26_MPI.PRM
 Tot(100)        7        5     2080    216.2    490.8   1105.4   432.00      0.0    198.9     17.3     40.1      0.0    104.3       57    262.2    201.7       89     0.000     0.000     0.000     0.000      107        0       42       25       18        3        7    14.920       67     39.8    5.937   -9.900     1.62    0.000    0.000       27        8     2080  Maize_short_Cahul_7May_NonOptimum_26_MPI.PRM
 Tot(101)        7        5     2081    240.6    452.4   1144.1   431.00      0.0    224.3     16.3     43.1      0.0    112.7       68    261.9    203.8       93     0.000     0.000     0.000     0.000      107        0       42       25       16        2        4    15.297       70     40.0    6.115   -9.900     1.63    0.000    0.000       27        8     2081  Maize_short_Cahul_7May_NonOptimum_26_MPI.PRM
 Tot(102)        7        5     2082    159.0    502.6   1143.9   431.00      0.0    145.2     13.8      2.4      0.0     95.2       46    219.3    170.5       80     0.000     0.000     0.000     0.000      107        0       42       25       14        8       14    12.127       54     39.4    4.772   -9.900     1.52    0.000    0.000       27        8     2082  Maize_short_Cahul_7May_NonOptimum_26_MPI.PRM
 Tot(103)        7        5     2083    165.6    505.8   1125.3   430.00      0.0    155.8      9.8     17.4      0.0     94.3       48    258.9    200.7       85     0.000     0.000     0.000     0.000      107        0       42       25       14        7       11    14.243       62     39.8    5.662   -9.900     1.60    0.000    0.000       27        8     2083  Maize_short_Cahul_7May_NonOptimum_26_MPI.PRM
 Tot(104)        7        5     2084    222.1    480.8   1146.4   429.00      0.0    209.6     12.5      0.0      0.0     86.8       44    281.9    218.7       98     0.000     0.000     0.000     0.000      107        0       42       25       15        2        1    16.448       73     40.0    6.580   -9.900     1.78    0.000    0.000       27        8     2084  Maize_short_Cahul_7May_NonOptimum_26_MPI.PRM
 Tot(105)        7        5     2085    156.6    474.5   1102.3   429.00      0.0    155.5      1.1      0.0      0.0     70.5       33    256.4    199.0      100     0.000     0.000     0.000     0.000      107        0       42       25       15        8        0    15.982       73     40.1    6.412   -9.900     1.96    0.000    0.000       27        8     2085  Maize_short_Cahul_7May_NonOptimum_26_MPI.PRM
 Tot(106)        7        5     2086    251.9    451.0   1158.2   428.00      0.0    227.4     24.5     57.0      0.0    106.8       66    269.1    209.3       94     0.000     0.000     0.000     0.000      107        0       42       25       14        1        5    16.150       71     39.9    6.450   -9.900     1.72    0.000    0.000       27        8     2086  Maize_short_Cahul_7May_NonOptimum_26_MPI.PRM
 Tot(107)        7        5     2087    214.0    521.6   1213.2   428.00      0.0    209.1      4.9      0.5      0.0    132.8       56    277.0    214.8       95     0.000     0.000     0.000     0.000      107        0       42       25       10       11        3    15.825       69     40.5    6.403   -9.900     1.56    0.000    0.000       27        8     2087  Maize_short_Cahul_7May_NonOptimum_26_MPI.PRM
 Tot(108)        7        5     2088    143.2    564.2   1288.1   427.00      0.0    131.7     11.5     10.2      0.0    107.1       41    238.7    188.7       80     0.000     0.000     0.000     0.000      107        0       42       25        8       10       17    12.730       54     39.1    4.976   -9.900     1.44    0.000    0.000       27        8     2088  Maize_short_Cahul_7May_NonOptimum_26_MPI.PRM
 Tot(109)        7        5     2089    242.1    441.5   1043.7   427.00      0.0    231.3     10.8      8.8      0.0     96.6       55    253.0    193.9      100     0.000     0.000     0.000     0.000      107        0       42       25       21        2        0    15.598       75     40.0    6.245   -9.900     1.79    0.000    0.000       27        8     2089  Maize_short_Cahul_7May_NonOptimum_26_MPI.PRM
 Tot(110)        7        5     2090    186.7    474.0   1093.5   426.00      0.0    185.4      1.3      0.0      0.0     76.2       38    268.2    208.2       99     0.000     0.000     0.000     0.000      107        0       42       25       15        6        0    15.872       73     40.1    6.369   -9.900     1.85    0.000    0.000       27        8     2090  Maize_short_Cahul_7May_NonOptimum_26_MPI.PRM
 Tot(111)        7        5     2091    125.8    553.7   1270.9   425.00      0.0    125.6      0.2      0.0      0.0     98.5       42    251.9    197.3       80     0.000     0.000     0.000     0.000      107        0       42       25        9        8       15    13.264       56     39.5    5.245   -9.900     1.50    0.000    0.000       27        8     2091  Maize_short_Cahul_7May_NonOptimum_26_MPI.PRM
 Tot(112)        7        5     2092    204.4    436.3   1050.6   425.00      0.0    201.5      2.9      2.5      0.0    123.3       75    256.1    196.7       97     0.000     0.000     0.000     0.000      107        0       42       25       19        6        2    15.949       72     40.4    6.446   -9.900     1.70    0.000    0.000       27        8     2092  Maize_short_Cahul_7May_NonOptimum_26_MPI.PRM
 Tot(113)        7        5     2093    258.2    439.6   1037.1   424.00      0.0    236.5     21.7     18.4      0.0    104.6       68    277.5    215.8      100     0.000     0.000     0.000     0.000      107        0       42       25       20        5        0    16.626       75     40.1    6.675   -9.900     1.75    0.000    0.000       27        8     2093  Maize_short_Cahul_7May_NonOptimum_26_MPI.PRM
 Tot(114)        7        5     2094    128.9    590.7   1291.9   424.00      0.0    126.0      2.9      0.0      0.0     73.0       27    250.8    195.5       79     0.000     0.000     0.000     0.000      107        0       42       25        8       10       13    12.530       53     39.4    4.931   -9.900     1.52    0.000    0.000       27        8     2094  Maize_short_Cahul_7May_NonOptimum_26_MPI.PRM
 Tot(115)        7        5     2095    129.2    540.9   1182.2   423.00      0.0    128.7      0.5      0.5      0.0    129.8       50    210.3    167.8       78     0.000     0.000     0.000     0.000      105        0       42       25       15       22       20    10.567       46     40.0    4.229   -9.900     1.25    0.000    0.000       27        8     2095  Maize_short_Cahul_7May_NonOptimum_26_MPI.PRM
 Tot(116)        7        5     2096    108.9    596.7   1309.7   423.00      0.0    108.1      0.8      0.0      0.0     85.4       30    225.3    176.2       75     0.000     0.000     0.000     0.000      107        0       42       25       10       12       19    11.253       47     38.9    4.379   -9.900     1.41    0.000    0.000       27        8     2096  Maize_short_Cahul_7May_NonOptimum_26_MPI.PRM
 Tot(117)        7        5     2097    157.7    454.9   1106.4   422.00      0.0    156.6      1.1      1.5      0.0    106.6       67    260.7    200.4       90     0.000     0.000     0.000     0.000      107        0       42       25       19        1        7    15.133       68     39.9    6.033   -9.900     1.64    0.000    0.000       27        8     2097  Maize_short_Cahul_7May_NonOptimum_26_MPI.PRM
 Tot(118)        7        5     2098    244.6    455.0   1125.4   422.00      0.0    229.1     15.5     28.5      0.0    110.3       63    275.8    213.0       99     0.000     0.000     0.000     0.000      107        0       42       25       15        2        1    16.480       75     40.1    6.617   -9.900     1.71    0.000    0.000       27        8     2098  Maize_short_Cahul_7May_NonOptimum_26_MPI.PRM
 Tot(119)        7        5     2099    183.5    467.1   1043.4   421.00      0.0    180.0      3.5      3.1      0.0     97.5       48    249.0    191.8      100     0.000     0.000     0.000     0.000      107        0       42       25       17        3        0    15.297       74     40.0    6.125   -9.900     1.77    0.000    0.000       27        8     2099  Maize_short_Cahul_7May_NonOptimum_26_MPI.PRM
