AquaCrop 7.0 (August 2022) - Output created on (date) : 23-11-2022   at (time) : 14:34:59

    RunNr     Day1   Month1    Year1     Rain      ETo       GD     CO2      Irri   Infilt   Runoff    Drain   Upflow        E     E/Ex       Tr      TrW   Tr/Trx    SaltIn   SaltOut    SaltUp  SaltProf     Cycle   SaltStr  FertStr  WeedStr  TempStr   ExpStr   StoStr  BioMass  Brelative   HI    Y(dry)  Y(fresh)    WPet      Bin     Bout     DayN   MonthN    YearN
                                           mm       mm  degC.day    ppm        mm       mm       mm       mm       mm       mm        %       mm       mm        %    ton/ha    ton/ha    ton/ha    ton/ha      days       %        %        %        %        %        %    ton/ha        %       %    ton/ha   ton/ha    kg/m3   ton/ha   ton/ha
   Tot(1)       22        5     1981    240.8    460.2   1219.9   340.11      0.0    210.3     30.5     45.0      0.0    104.1       48    244.4    244.1      100     0.000     0.000     0.000     0.000      107        0        0        0       13        3        0    19.498       95     40.1    7.815   -9.900     2.24    0.000    0.000       11        9     1981  Maize_Short_Soroca_22May_Optimum_85_NCC.PRM
   Tot(2)       22        5     1982    274.6    445.7   1204.3   341.22      0.0    238.9     35.7     42.9      0.0    128.1       64    250.3    250.0      100     0.000     0.000     0.000     0.000      107        0        0        0       11        2        0    20.705       96     40.0    8.291   -9.900     2.19    0.000    0.000       11        9     1982  Maize_Short_Soroca_22May_Optimum_85_NCC.PRM
   Tot(3)       22        5     1983    219.2    435.3   1214.1   342.84      0.0    214.3      4.9      0.1      0.0    106.4       56    242.1    241.1      100     0.000     0.000     0.000     0.000      107        0        0        0       11        1        0    20.404       97     40.0    8.162   -9.900     2.34    0.000    0.000       11        9     1983  Maize_Short_Soroca_22May_Optimum_85_NCC.PRM
   Tot(4)       22        5     1984    324.1    420.3   1075.3   344.40      0.0    305.9     18.2     19.5      0.0    155.4       90    234.9    236.4      100     0.000     0.000     0.000     0.000      107        0        0        0       18        0        0    19.737       98     40.0    7.895   -9.900     2.02    0.000    0.000       11        9     1984  Maize_Short_Soroca_22May_Optimum_85_NCC.PRM
   Tot(5)       22        5     1985    381.4    448.7   1131.4   345.87      0.0    343.1     38.3     63.4      0.0    143.5       80    261.4    261.9      100     0.000     0.000     0.000     0.000      107        0        0        0       17        1        0    19.769       97     40.1    7.930   -9.900     1.96    0.000    0.000       11        9     1985  Maize_Short_Soroca_22May_Optimum_85_NCC.PRM
   Tot(6)       22        5     1986    162.2    512.9   1240.3   347.19      0.0    161.8      0.4      0.0      0.0    109.8       46    253.4    252.8       94     0.000     0.000     0.000     0.000      107        0        0        0       13        7        5    18.052       88     40.1    7.241   -9.900     1.99    0.000    0.000       11        9     1986  Maize_Short_Soroca_22May_Optimum_85_NCC.PRM
   Tot(7)       22        5     1987    256.6    456.5   1133.8   348.98      0.0    246.2     10.4     15.1      0.0    136.1       68    245.6    245.3      100     0.000     0.000     0.000     0.000      107        0        0        0       17       12        0    18.730       94     40.5    7.588   -9.900     1.99    0.000    0.000       11        9     1987  Maize_Short_Soroca_22May_Optimum_85_NCC.PRM
   Tot(8)       22        5     1988    324.3    426.4   1235.2   351.45      0.0    304.9     19.4     38.9      0.0    140.6       84    261.7    262.8      100     0.000     0.000     0.000     0.000      107        0        0        0       12        1        0    20.589       98     40.1    8.252   -9.900     2.05    0.000    0.000       11        9     1988  Maize_Short_Soroca_22May_Optimum_85_NCC.PRM
   Tot(9)       22        5     1989    398.6    434.0   1151.2   352.89      0.0    334.0     64.6     24.5      0.0    114.7       60    245.6    246.2      100     0.000     0.000     0.000     0.000      107        0        0        0       14        4        0    19.987       96     40.1    8.023   -9.900     2.23    0.000    0.000       11        9     1989  Maize_Short_Soroca_22May_Optimum_85_NCC.PRM
  Tot(10)       22        5     1990    193.6    463.7   1109.4   354.16      0.0    190.8      2.8      6.4      0.0    145.0       75    243.2    243.1       92     0.000     0.000     0.000     0.000      107        0        0        0       17        6        8    18.291       87     40.2    7.347   -9.900     1.89    0.000    0.000       11        9     1990  Maize_Short_Soroca_22May_Optimum_85_NCC.PRM
  Tot(11)       22        5     1991    419.0    410.7   1159.5   355.48      0.0    366.8     52.2     52.7      0.0    138.5       81    241.6    240.6      100     0.000     0.000     0.000     0.000      107        0        0        0       14        1        0    20.834       98     40.0    8.339   -9.900     2.19    0.000    0.000       11        9     1991  Maize_Short_Soroca_22May_Optimum_85_NCC.PRM
  Tot(12)       22        5     1992    208.9    511.5   1268.1   356.27      0.0    203.2      5.7     14.5      0.0    147.2       71    241.9    243.0       80     0.000     0.000     0.000     0.000      107        0        0        0       11       13       14    15.503       70     39.8    6.174   -9.900     1.59    0.000    0.000       11        9     1992  Maize_Short_Soroca_22May_Optimum_85_NCC.PRM
  Tot(13)       22        5     1993    240.0    450.5   1102.8   356.95      0.0    233.7      6.3      5.7      0.0    119.2       61    243.7    242.4      100     0.000     0.000     0.000     0.000      107        0        0        0       17        2        0    19.030       97     40.1    7.623   -9.900     2.10    0.000    0.000       11        9     1993  Maize_Short_Soroca_22May_Optimum_85_NCC.PRM
  Tot(14)       22        5     1994    254.5    502.2   1248.0   358.63      0.0    222.8     31.7     20.8      0.0    124.3       56    248.7    248.7       87     0.000     0.000     0.000     0.000      107        0        0        0       12       13        8    17.227       76     40.5    6.973   -9.900     1.87    0.000    0.000       11        9     1994  Maize_Short_Soroca_22May_Optimum_85_NCC.PRM
  Tot(15)       22        5     1995    376.0    484.7   1320.2   360.62      0.0    320.5     55.5     21.5      0.0    109.4       50    278.5    278.2      100     0.000     0.000     0.000     0.000      107        0        0        0        6        4        0    21.120       95     40.1    8.460   -9.900     2.18    0.000    0.000       11        9     1995  Maize_Short_Soroca_22May_Optimum_85_NCC.PRM
  Tot(16)       22        5     1996    300.9    473.4   1194.7   362.37      0.0    280.7     20.2     14.7      0.0     98.5       42    244.4    246.0      100     0.000     0.000     0.000     0.000      107        0        0        0       13        3        0    19.712       95     40.0    7.885   -9.900     2.30    0.000    0.000       11        9     1996  Maize_Short_Soroca_22May_Optimum_85_NCC.PRM
  Tot(17)       22        5     1997    330.4    417.9   1118.9   363.47      0.0    311.2     19.2     16.2      0.0    121.6       65    228.4    228.1      100     0.000     0.000     0.000     0.000      107        0        0        0       15        1        0    20.623       97     40.0    8.249   -9.900     2.36    0.000    0.000       11        9     1997  Maize_Short_Soroca_22May_Optimum_85_NCC.PRM
  Tot(18)       22        5     1998    279.4    435.7   1188.1   366.50      0.0    261.5     17.9     17.9      0.0    117.5       66    246.1    244.0      100     0.000     0.000     0.000     0.000      107        0        0        0       15        1        0    19.204       97     40.0    7.683   -9.900     2.11    0.000    0.000       11        9     1998  Maize_Short_Soroca_22May_Optimum_85_NCC.PRM
  Tot(19)       22        5     1999    167.8    514.8   1406.8   368.14      0.0    167.8      0.0      0.0      0.0    106.3       41    257.4    258.5       94     0.000     0.000     0.000     0.000      107        0        0        0        3       16        4    19.349       84     40.5    7.845   -9.900     2.16    0.000    0.000       11        9     1999  Maize_Short_Soroca_22May_Optimum_85_NCC.PRM
  Tot(20)       22        5     2000    266.5    494.1   1237.4   369.41      0.0    256.4     10.1     11.7      0.0    112.2       48    270.3    269.9      100     0.000     0.000     0.000     0.000      107        0        0        0       12        2        0    20.703       95     40.0    8.282   -9.900     2.17    0.000    0.000       11        9     2000  Maize_Short_Soroca_22May_Optimum_85_NCC.PRM
  Tot(21)       22        5     2001    315.8    471.8   1256.9   371.07      0.0    291.7     24.1     19.9      0.0    135.7       74    285.6    287.3       96     0.000     0.000     0.000     0.000      107        0        0        0       13        1        4    20.484       92     40.0    8.190   -9.900     1.94    0.000    0.000       11        9     2001  Maize_Short_Soroca_22May_Optimum_85_NCC.PRM
  Tot(22)       22        5     2002    383.6    500.9   1374.8   373.16      0.0    349.5     34.1      2.8      0.0    144.8       64    295.6    295.2      100     0.000     0.000     0.000     0.000      107        0        0        0        7       10        0    21.668       93     40.1    8.690   -9.900     1.97    0.000    0.000       11        9     2002  Maize_Short_Soroca_22May_Optimum_85_NCC.PRM
  Tot(23)       22        5     2003    341.0    524.1   1271.7   375.80      0.0    288.4     52.6     47.8      0.0    102.3       39    266.2    265.0      100     0.000     0.000     0.000     0.000      107        0        0        0       11        4        0    20.090       94     40.0    8.038   -9.900     2.18    0.000    0.000       11        9     2003  Maize_Short_Soroca_22May_Optimum_85_NCC.PRM
  Tot(24)       22        5     2004    246.8    480.3   1170.9   377.49      0.0    225.9     20.9      0.0      0.0     76.1       31    243.8    245.6      100     0.000     0.000     0.000     0.000      107        0        0        0       12        7        0    20.107       93     40.1    8.065   -9.900     2.52    0.000    0.000       11        9     2004  Maize_Short_Soroca_22May_Optimum_85_NCC.PRM
  Tot(25)       22        5     2005    191.9    472.0   1278.0   379.80      0.0    190.3      1.6      0.5      0.0    108.7       51    269.4    267.5       99     0.000     0.000     0.000     0.000      107        0        0        0        8        5        1    21.696       95     40.2    8.724   -9.900     2.31    0.000    0.000       11        9     2005  Maize_Short_Soroca_22May_Optimum_85_NCC.PRM
  Tot(26)       22        5     2006    297.5    485.6   1226.9   381.90      0.0    283.3     14.2     20.3      0.0    130.8       64    286.8    287.4       99     0.000     0.000     0.000     0.000      107        0        0        0       14       11        0    20.990       94     40.5    8.503   -9.900     2.04    0.000    0.000       11        9     2006  Maize_Short_Soroca_22May_Optimum_85_NCC.PRM
  Tot(27)       22        5     2007    171.9    576.2   1439.4   383.77      0.0    171.9      0.0      0.0      0.0    111.7       35    248.0    248.3       90     0.000     0.000     0.000     0.000      107        0        0        0        5       24        7    16.856       74     40.8    6.870   -9.900     1.91    0.000    0.000       11        9     2007  Maize_Short_Soroca_22May_Optimum_85_NCC.PRM
  Tot(28)       22        5     2008    348.1    533.3   1326.6   385.59      0.0    288.2     59.9      0.7      0.0    123.6       54    317.8    317.1      100     0.000     0.000     0.000     0.000      107        0        0        0        6        6        0    21.950       94     40.0    8.780   -9.900     1.99    0.000    0.000       11        9     2008  Maize_Short_Soroca_22May_Optimum_85_NCC.PRM
  Tot(29)       22        5     2009    203.0    548.8   1334.5   387.37      0.0    201.4      1.6      0.3      0.0    154.6       62    265.5    266.8       86     0.000     0.000     0.000     0.000      107        0        0        0        7        8       13    17.783       76     40.0    7.113   -9.900     1.69    0.000    0.000       11        9     2009  Maize_Short_Soroca_22May_Optimum_85_NCC.PRM
  Tot(30)       22        5     2010    347.1    480.7   1367.9   389.85      0.0    318.5     28.6     55.2      0.0    140.3       70    283.4    282.4       98     0.000     0.000     0.000     0.000      107        0        0        0        9        1        1    21.105       96     40.0    8.452   -9.900     2.00    0.000    0.000       11        9     2010  Maize_Short_Soroca_22May_Optimum_85_NCC.PRM
  Tot(31)       22        5     2011    182.7    539.3   1341.3   391.63      0.0    180.8      1.9      0.0      0.0    124.7       48    270.0    270.8       91     0.000     0.000     0.000     0.000      107        0        0        0        6        7        8    19.361       84     39.9    7.733   -9.900     1.96    0.000    0.000       11        9     2011  Maize_Short_Soroca_22May_Optimum_85_NCC.PRM
  Tot(32)       22        5     2012    126.3    606.4   1414.1   393.82      0.0    126.0      0.3      0.0      0.0    116.6       35    223.3    223.5       79     0.000     0.000     0.000     0.000      107        0        0        0        6       25       16    13.891       61     40.4    5.608   -9.900     1.65    0.000    0.000       11        9     2012  Maize_Short_Soroca_22May_Optimum_85_NCC.PRM
  Tot(33)       22        5     2013    245.3    495.7   1303.4   396.48      0.0    225.7     19.6     20.7      0.0    155.8       71    237.6    237.3       86     0.000     0.000     0.000     0.000      107        0        0        0        7        9        8    17.534       77     40.2    7.050   -9.900     1.79    0.000    0.000       11        9     2013  Maize_Short_Soroca_22May_Optimum_85_NCC.PRM
  Tot(34)       22        5     2014    253.7    516.6   1359.2   398.55      0.0    231.9     21.8     10.0      0.0    103.5       48    307.9    306.5       99     0.000     0.000     0.000     0.000      107        0        0        0        7        2        1    22.091       95     40.0    8.837   -9.900     2.15    0.000    0.000       11        9     2014  Maize_Short_Soroca_22May_Optimum_85_NCC.PRM
  Tot(35)       22        5     2015     64.6    613.4   1397.9   402.00      0.0     64.6      0.0      0.0      0.0     90.2       24    179.8    182.0       77     0.000     0.000     0.000     0.000       97        0        0        0        5       28       19    10.594       46     34.0    3.601   -9.900     1.39    0.000    0.000       11        9     2015  Maize_Short_Soroca_22May_Optimum_85_NCC.PRM
  Tot(36)       22        5     2016    223.5    541.1   1411.6   404.00      0.0    221.3      2.2      0.5      0.0    172.0       75    271.0    270.3       84     0.000     0.000     0.000     0.000      107        0        0        0        5       16       13    17.870       75     40.4    7.219   -9.900     1.63    0.000    0.000       11        9     2016  Maize_Short_Soroca_22May_Optimum_85_NCC.PRM
  Tot(37)       22        5     2017    190.2    557.9   1350.9   407.00      0.0    188.7      1.5      0.3      0.0    148.1       57    258.0    258.1       86     0.000     0.000     0.000     0.000      107        0        0        0        6       12       13    17.404       75     40.1    6.980   -9.900     1.72    0.000    0.000       11        9     2017  Maize_Short_Soroca_22May_Optimum_85_NCC.PRM
  Tot(38)       22        5     2018    247.0    517.0   1451.6   410.00      0.0    234.6     12.4      7.5      0.0    111.3       46    293.1    292.7       99     0.000     0.000     0.000     0.000      107        0        0        0        4        3        1    22.356       94     40.0    8.941   -9.900     2.21    0.000    0.000       11        9     2018  Maize_Short_Soroca_22May_Optimum_85_NCC.PRM
  Tot(39)       22        5     2019    224.9    551.2   1441.3   413.00      0.0    207.2     17.7     24.8      0.0    162.1       65    244.6    245.3       82     0.000     0.000     0.000     0.000      107        0        0        0        3        9       16    17.160       73     39.6    6.802   -9.900     1.67    0.000    0.000       11        9     2019  Maize_Short_Soroca_22May_Optimum_85_NCC.PRM
  Tot(40)       22        5     2020    176.8    549.9   1244.6   416.00      0.0    174.3      2.5      0.0      0.0    134.6       59    257.4    257.4       82     0.000     0.000     0.000     0.000      107        0        0        0       13        5       16    16.768       72     39.5    6.631   -9.900     1.69    0.000    0.000       11        9     2020  Maize_Short_Soroca_22May_Optimum_85_NCC.PRM
  Tot(41)       22        5     2021    191.1    522.6   1268.9   419.00      0.0    188.4      2.7      1.5      0.0    136.9       63    267.3    266.9       88     0.000     0.000     0.000     0.000      107        0        0        0       10        5       11    18.405       80     40.0    7.364   -9.900     1.82    0.000    0.000       11        9     2021  Maize_Short_Soroca_22May_Optimum_85_NCC.PRM
  Tot(42)       22        5     2022    224.1    452.0   1095.8   422.00      0.0    211.2     12.9     27.1      0.0    128.2       72    248.7    249.1       96     0.000     0.000     0.000     0.000      107        0        0        0       17        1        3    19.411       94     40.0    7.766   -9.900     2.06    0.000    0.000       11        9     2022  Maize_Short_Soroca_22May_Optimum_85_NCC.PRM
  Tot(43)       22        5     2023    171.0    471.4   1087.4   425.00      0.0    167.8      3.2      0.0      0.0    106.6       45    219.8    219.1       96     0.000     0.000     0.000     0.000      107        0        0        0       19       23        2    17.536       86     40.9    7.170   -9.900     2.20    0.000    0.000       11        9     2023  Maize_Short_Soroca_22May_Optimum_85_NCC.PRM
  Tot(44)       22        5     2024    116.6    628.9   1380.8   428.00      0.0    116.2      0.4      0.0      0.0    124.0       36    207.9    208.9       76     0.000     0.000     0.000     0.000       97        0        0        0        3       19       20    12.017       52     33.7    4.047   -9.900     1.23    0.000    0.000       11        9     2024  Maize_Short_Soroca_22May_Optimum_85_NCC.PRM
  Tot(45)       22        5     2025    259.9    496.3   1272.4   431.00      0.0    249.7     10.2     20.8      0.0    173.8       82    264.2    263.5       93     0.000     0.000     0.000     0.000      107        0        0        0        9        3        6    20.467       90     40.0    8.191   -9.900     1.87    0.000    0.000       11        9     2025  Maize_Short_Soroca_22May_Optimum_85_NCC.PRM
  Tot(46)       22        5     2026    196.7    451.5   1036.6   435.00      0.0    188.4      8.3      0.3      0.0     93.3       44    211.9    209.9      100     0.000     0.000     0.000     0.000      107        0        0        0       19        5        0    18.684       95     40.0    7.477   -9.900     2.45    0.000    0.000       11        9     2026  Maize_Short_Soroca_22May_Optimum_85_NCC.PRM
  Tot(47)       22        5     2027     60.1    520.8   1100.2   438.00      0.0     60.1      0.0      0.0      0.0     85.9       35    190.8    193.5       76     0.000     0.000     0.000     0.000      101        0        0        0       21       15       19    12.767       57     37.8    4.829   -9.900     1.76    0.000    0.000       11        9     2027  Maize_Short_Soroca_22May_Optimum_85_NCC.PRM
  Tot(48)       22        5     2028    237.3    549.5   1321.4   442.00      0.0    221.8     15.5     29.9      0.0    165.0       66    230.7    229.7       81     0.000     0.000     0.000     0.000      107        0        0        0       10       13       12    15.581       69     40.0    6.236   -9.900     1.58    0.000    0.000       11        9     2028  Maize_Short_Soroca_22May_Optimum_85_NCC.PRM
  Tot(49)       22        5     2029    104.2    561.1   1214.5   445.00      0.0    104.2      0.0      0.0      0.0    115.4       41    198.7    199.8       76     0.000     0.000     0.000     0.000       97        0        0        0       15       20       20    12.241       53     33.8    4.139   -9.900     1.35    0.000    0.000       11        9     2029  Maize_Short_Soroca_22May_Optimum_85_NCC.PRM
  Tot(50)       22        5     2030    152.9    592.9   1352.7   449.00      0.0    148.2      4.7      5.5      0.0    135.3       41    208.1    207.1       79     0.000     0.000     0.000     0.000      107        0        0        0       10       31       15    12.491       53     40.5    5.055   -9.900     1.47    0.000    0.000       11        9     2030  Maize_Short_Soroca_22May_Optimum_85_NCC.PRM
  Tot(51)       22        5     2031    148.7    539.4   1203.3   452.00      0.0    147.8      0.9      0.0      0.0    119.4       51    238.1    238.7       84     0.000     0.000     0.000     0.000      107        0        0        0       13        7       14    15.863       72     39.7    6.299   -9.900     1.76    0.000    0.000       11        9     2031  Maize_Short_Soroca_22May_Optimum_85_NCC.PRM
  Tot(52)       22        5     2032    139.5    576.3   1292.6   456.00      0.0    137.8      1.7      2.8      0.0    135.9       44    198.1    198.1       78     0.000     0.000     0.000     0.000      107        0        0        0       13       29       17    11.757       55     40.4    4.749   -9.900     1.42    0.000    0.000       11        9     2032  Maize_Short_Soroca_22May_Optimum_85_NCC.PRM
  Tot(53)       22        5     2033    148.2    525.2   1221.9   460.00      0.0    147.2      1.0      0.0      0.0    121.0       54    236.6    236.3       84     0.000     0.000     0.000     0.000      107        0        0        0       11       10       13    16.768       75     40.1    6.727   -9.900     1.88    0.000    0.000       11        9     2033  Maize_Short_Soroca_22May_Optimum_85_NCC.PRM
  Tot(54)       22        5     2034    211.2    489.4   1175.7   464.00      0.0    201.1     10.1     18.0      0.0    141.3       65    242.9    242.5       94     0.000     0.000     0.000     0.000      107        0        0        0       13       11        6    18.984       87     40.4    7.671   -9.900     2.00    0.000    0.000       11        9     2034  Maize_Short_Soroca_22May_Optimum_85_NCC.PRM
  Tot(55)       22        5     2035    119.6    597.7   1348.0   468.00      0.0    115.3      4.3      4.9      0.0    117.8       39    211.1    212.1       76     0.000     0.000     0.000     0.000      100        0        0        0        6       17       19    13.203       58     36.4    4.810   -9.900     1.47    0.000    0.000       11        9     2035  Maize_Short_Soroca_22May_Optimum_85_NCC.PRM
  Tot(56)       22        5     2036    222.0    433.2   1061.7   472.00      0.0    219.0      3.0      4.4      0.0    151.8       79    210.6    210.6      100     0.000     0.000     0.000     0.000      107        0        0        0       22        2        0    18.609       97     40.1    7.468   -9.900     2.06    0.000    0.000       11        9     2036  Maize_Short_Soroca_22May_Optimum_85_NCC.PRM
  Tot(57)       22        5     2037    134.4    566.3   1364.6   476.00      0.0    132.5      1.9      0.0      0.0    112.9       42    226.5    225.7       77     0.000     0.000     0.000     0.000      107        0        0        0        8       14       16    15.626       67     39.7    6.200   -9.900     1.83    0.000    0.000       11        9     2037  Maize_Short_Soroca_22May_Optimum_85_NCC.PRM
  Tot(58)       22        5     2038    198.0    578.2   1375.1   481.00      0.0    189.0      9.0      6.4      0.0    147.9       61    257.4    258.2       80     0.000     0.000     0.000     0.000      107        0        0        0        5        4       19    16.522       68     39.1    6.452   -9.900     1.59    0.000    0.000       11        9     2038  Maize_Short_Soroca_22May_Optimum_85_NCC.PRM
  Tot(59)       22        5     2039     98.8    572.0   1284.6   485.00      0.0     98.6      0.2      0.0      0.0    111.0       40    208.4    208.1       73     0.000     0.000     0.000     0.000      107        0        0        0       10       20       20    14.031       59     39.8    5.590   -9.900     1.75    0.000    0.000       11        9     2039  Maize_Short_Soroca_22May_Optimum_85_NCC.PRM
  Tot(60)       22        5     2040    190.7    556.3   1311.6   489.00      0.0    186.5      4.2      8.1      0.0    161.8       60    213.7    213.8       78     0.000     0.000     0.000     0.000      107        0        0        0        9       18       17    13.850       59     39.8    5.514   -9.900     1.47    0.000    0.000       11        9     2040  Maize_Short_Soroca_22May_Optimum_85_NCC.PRM
  Tot(61)       22        5     2041    247.4    487.1   1266.5   494.00      0.0    231.5     15.9     39.5      0.0    152.9       85    254.1    253.8       86     0.000     0.000     0.000     0.000      107        0        0        0        9        4       12    18.608       79     39.8    7.410   -9.900     1.82    0.000    0.000       11        9     2041  Maize_Short_Soroca_22May_Optimum_85_NCC.PRM
  Tot(62)       22        5     2042     46.9    705.4   1523.3   499.00      0.0     46.9      0.0      0.0      0.0     79.6       16    158.8    159.4       74     0.000     0.000     0.000     0.000       89        0        0        0        4       35       19     8.088       33     26.0    2.103   -9.900     0.90    0.000    0.000       11        9     2042  Maize_Short_Soroca_22May_Optimum_85_NCC.PRM
  Tot(63)       22        5     2043    135.0    541.9   1339.1   504.00      0.0    134.9      0.1      0.0      0.0     97.5       42    253.7    253.1       84     0.000     0.000     0.000     0.000      107        0        0        0        9       10       12    17.752       75     39.9    7.081   -9.900     2.02    0.000    0.000       11        9     2043  Maize_Short_Soroca_22May_Optimum_85_NCC.PRM
  Tot(64)       22        5     2044    281.3    476.3   1171.3   508.00      0.0    251.1     30.2     28.7      0.0    116.3       58    253.3    253.6       97     0.000     0.000     0.000     0.000      107        0        0        0       16        4        3    20.120       93     40.2    8.089   -9.900     2.19    0.000    0.000       11        9     2044  Maize_Short_Soroca_22May_Optimum_85_NCC.PRM
  Tot(65)       22        5     2045    180.5    504.9   1172.8   513.00      0.0    157.6     22.9     35.6      0.0    100.1       48    224.7    223.8       82     0.000     0.000     0.000     0.000      107        0        0        0       16       13       14    15.192       66     40.1    6.093   -9.900     1.88    0.000    0.000       11        9     2045  Maize_Short_Soroca_22May_Optimum_85_NCC.PRM
  Tot(66)       22        5     2046    218.3    525.3   1348.9   519.00      0.0    189.6     28.7     19.7      0.0    132.8       62    256.2    257.2       85     0.000     0.000     0.000     0.000      107        0        0        0        6       11       13    18.398       76     39.9    7.346   -9.900     1.89    0.000    0.000       11        9     2046  Maize_Short_Soroca_22May_Optimum_85_NCC.PRM
  Tot(67)       22        5     2047    186.4    490.2   1234.2   524.00      0.0    181.0      5.4      6.5      0.0    132.5       69    253.1    252.1       90     0.000     0.000     0.000     0.000      107        0        0        0       11        3        9    19.685       86     39.9    7.862   -9.900     2.04    0.000    0.000       11        9     2047  Maize_Short_Soroca_22May_Optimum_85_NCC.PRM
  Tot(68)       22        5     2048    190.6    582.6   1379.8   529.00      0.0    160.5     30.1     49.1      0.0    114.2       44    221.1    222.4       74     0.000     0.000     0.000     0.000      105        0        0        0        8       11       23    14.334       58     38.8    5.566   -9.900     1.66    0.000    0.000       11        9     2048  Maize_Short_Soroca_22May_Optimum_85_NCC.PRM
  Tot(69)       22        5     2049    180.3    497.1   1165.7   535.00      0.0    171.3      9.0      1.6      0.0    101.9       51    268.1    266.1       94     0.000     0.000     0.000     0.000      107        0        0        0       13        3        4    21.156       91     40.0    8.457   -9.900     2.29    0.000    0.000       11        9     2049  Maize_Short_Soroca_22May_Optimum_85_NCC.PRM
  Tot(70)       22        5     2050    226.0    449.3   1115.4   541.00      0.0    194.1     31.9     55.5      0.0    112.1       68    240.7    242.5       90     0.000     0.000     0.000     0.000      107        0        0        0       15        7       10    19.395       84     40.0    7.766   -9.900     2.20    0.000    0.000       11        9     2050  Maize_Short_Soroca_22May_Optimum_85_NCC.PRM
  Tot(71)       22        5     2051    280.9    421.2   1178.6   546.00      0.0    263.2     17.7      7.5      0.0    135.0       70    219.6    218.1      100     0.000     0.000     0.000     0.000      107        0        0        0        9        1        0    22.340       97     40.0    8.936   -9.900     2.52    0.000    0.000       11        9     2051  Maize_Short_Soroca_22May_Optimum_85_NCC.PRM
  Tot(72)       22        5     2052    167.3    591.5   1441.0   552.00      0.0    158.3      9.0      6.0      0.0    126.8       50    247.9    249.7       78     0.000     0.000     0.000     0.000      107        0        0        0        4        8       19    16.261       66     39.1    6.353   -9.900     1.70    0.000    0.000       11        9     2052  Maize_Short_Soroca_22May_Optimum_85_NCC.PRM
  Tot(73)       22        5     2053    241.6    471.5   1281.8   558.00      0.0    225.8     15.8     29.7      0.0    128.8       73    272.2    270.9       93     0.000     0.000     0.000     0.000      107        0        0        0        9        3        6    21.801       89     40.1    8.739   -9.900     2.18    0.000    0.000       11        9     2053  Maize_Short_Soroca_22May_Optimum_85_NCC.PRM
  Tot(74)       22        5     2054    244.6    533.7   1332.4   564.00      0.0    203.0     41.6     35.3      0.0    129.5       59    239.2    240.0       82     0.000     0.000     0.000     0.000      107        0        0        0        7       10       14    17.256       71     39.6    6.841   -9.900     1.86    0.000    0.000       11        9     2054  Maize_Short_Soroca_22May_Optimum_85_NCC.PRM
  Tot(75)       22        5     2055    218.8    497.5   1202.9   571.00      0.0    214.8      4.0      5.3      0.0    157.5       74    255.0    254.8       96     0.000     0.000     0.000     0.000      107        0        0        0       13        2        4    20.698       92     40.1    8.295   -9.900     2.01    0.000    0.000       11        9     2055  Maize_Short_Soroca_22May_Optimum_85_NCC.PRM
  Tot(76)       22        5     2056    127.0    657.8   1580.9   577.00      0.0    123.7      3.3      3.1      0.0    132.7       35    182.1    182.7       72     0.000     0.000     0.000     0.000       92        0        0        0        1       27       20    10.369       42     28.8    2.982   -9.900     0.99    0.000    0.000       11        9     2056  Maize_Short_Soroca_22May_Optimum_85_NCC.PRM
  Tot(77)       22        5     2057    138.2    547.4   1358.7   583.00      0.0    134.3      3.9      8.0      0.0    131.2       54    215.8    215.8       78     0.000     0.000     0.000     0.000      105        0        0        0        6       13       19    15.334       62     39.5    6.065   -9.900     1.75    0.000    0.000       11        9     2057  Maize_Short_Soroca_22May_Optimum_85_NCC.PRM
  Tot(78)       22        5     2058     81.9    588.3   1368.3   590.00      0.0     77.6      4.3      6.7      0.0     96.2       34    190.2    190.2       72     0.000     0.000     0.000     0.000       95        0        0        0        8       18       20    12.370       50     31.7    3.927   -9.900     1.39    0.000    0.000       11        9     2058  Maize_Short_Soroca_22May_Optimum_85_NCC.PRM
  Tot(79)       22        5     2059     81.8    654.1   1494.1   597.00      0.0     81.8      0.0      0.0      0.0    110.5       27    167.3    167.3       74     0.000     0.000     0.000     0.000       92        0        0        0        5       30       19     9.852       39     29.0    2.856   -9.900     1.05    0.000    0.000       11        9     2059  Maize_Short_Soroca_22May_Optimum_85_NCC.PRM
  Tot(80)       22        5     2060    200.7    454.1   1099.3   604.00      0.0    197.6      3.1      0.7      0.0    111.9       59    241.6    237.8      100     0.000     0.000     0.000     0.000      107        0        0        0       18        3        0    21.455       97     40.1    8.604   -9.900     2.43    0.000    0.000       11        9     2060  Maize_Short_Soroca_22May_Optimum_85_NCC.PRM
  Tot(81)       22        5     2061    163.6    526.0   1316.9   611.00      0.0    153.2     10.4     26.0      0.0    133.2       55    207.8    211.6       80     0.000     0.000     0.000     0.000      104        0        0        0        8       14       19    14.942       61     39.7    5.925   -9.900     1.74    0.000    0.000       11        9     2061  Maize_Short_Soroca_22May_Optimum_85_NCC.PRM
  Tot(82)       22        5     2062    181.2    581.6   1386.5   618.00      0.0    178.9      2.3      0.0      0.0    124.6       47    261.1    260.2       86     0.000     0.000     0.000     0.000      107        0        0        0        8       10       10    18.357       77     40.0    7.336   -9.900     1.90    0.000    0.000       11        9     2062  Maize_Short_Soroca_22May_Optimum_85_NCC.PRM
  Tot(83)       22        5     2063    125.3    607.1   1402.0   625.00      0.0    117.3      8.0     14.6      0.0    124.3       41    195.2    196.0       74     0.000     0.000     0.000     0.000       98        0        0        0        4       20       20    13.294       53     34.7    4.609   -9.900     1.46    0.000    0.000       11        9     2063  Maize_Short_Soroca_22May_Optimum_85_NCC.PRM
  Tot(84)       22        5     2064    108.2    588.7   1439.8   632.00      0.0    108.0      0.2      0.4      0.0     96.4       35    224.6    223.9       77     0.000     0.000     0.000     0.000      107        0        0        0        7       18       17    15.304       62     39.9    6.104   -9.900     1.90    0.000    0.000       11        9     2064  Maize_Short_Soroca_22May_Optimum_85_NCC.PRM
  Tot(85)       22        5     2065    187.5    598.8   1514.1   639.00      0.0    176.5     11.0     23.2      0.0    146.3       54    227.6    228.3       79     0.000     0.000     0.000     0.000      102        0        0        0        3       11       19    15.098       60     38.3    5.777   -9.900     1.55    0.000    0.000       11        9     2065  Maize_Short_Soroca_22May_Optimum_85_NCC.PRM
  Tot(86)       22        5     2066     72.7    622.9   1481.0   647.00      0.0     72.6      0.1      0.0      0.0     93.2       26    187.1    187.1       75     0.000     0.000     0.000     0.000       99        0        0        0        4       23       18    12.059       48     36.1    4.350   -9.900     1.57    0.000    0.000       11        9     2066  Maize_Short_Soroca_22May_Optimum_85_NCC.PRM
  Tot(87)       22        5     2067    106.8    667.3   1578.9   654.00      0.0    106.2      0.6      0.0      0.0    129.8       32    180.6    180.6       76     0.000     0.000     0.000     0.000       96        0        0        0        1       30       18    10.900       43     33.1    3.612   -9.900     1.18    0.000    0.000       11        9     2067  Maize_Short_Soroca_22May_Optimum_85_NCC.PRM
  Tot(88)       22        5     2068    203.0    530.1   1354.2   662.00      0.0    179.9     23.1     38.1      0.0    143.0       62    219.3    219.3       81     0.000     0.000     0.000     0.000      107        0        0        0        6       11       19    16.415       68     39.6    6.506   -9.900     1.80    0.000    0.000       11        9     2068  Maize_Short_Soroca_22May_Optimum_85_NCC.PRM
  Tot(89)       22        5     2069    298.2    443.6   1203.4   669.00      0.0    267.9     30.3     33.7      0.0    144.6       74    231.9    230.7      100     0.000     0.000     0.000     0.000      107        0        0        0       11        4        0    22.387       96     40.0    8.958   -9.900     2.38    0.000    0.000       11        9     2069  Maize_Short_Soroca_22May_Optimum_85_NCC.PRM
  Tot(90)       22        5     2070    112.9    556.0   1356.6   677.00      0.0    111.8      1.1      0.3      0.0    105.5       44    222.0    222.8       79     0.000     0.000     0.000     0.000      107        0        0        0        8       12       19    15.422       64     39.7    6.115   -9.900     1.87    0.000    0.000       11        9     2070  Maize_Short_Soroca_22May_Optimum_85_NCC.PRM
  Tot(91)       22        5     2071    209.5    556.5   1463.4   685.00      0.0    193.6     15.9     31.1      0.0    136.7       56    233.3    233.5       81     0.000     0.000     0.000     0.000      107        0        0        0        4       13       16    16.159       66     40.1    6.479   -9.900     1.75    0.000    0.000       11        9     2071  Maize_Short_Soroca_22May_Optimum_85_NCC.PRM
  Tot(92)       22        5     2072    280.8    509.8   1424.0   693.00      0.0    269.4     11.4      8.6      0.0    154.4       71    280.4    278.3       99     0.000     0.000     0.000     0.000      107        0        0        0        4        3        0    23.315       96     40.1    9.351   -9.900     2.15    0.000    0.000       11        9     2072  Maize_Short_Soroca_22May_Optimum_85_NCC.PRM
  Tot(93)       22        5     2073    158.6    591.1   1455.7   701.00      0.0    157.6      1.0      0.0      0.0    143.1       55    224.4    226.2       75     0.000     0.000     0.000     0.000      107        0        0        0        6       17       20    14.373       58     33.1    4.757   -9.900     1.29    0.000    0.000       11        9     2073  Maize_Short_Soroca_22May_Optimum_85_NCC.PRM
  Tot(94)       22        5     2074    206.1    625.9   1603.6   709.00      0.0    203.9      2.2      6.9      0.0    134.1       49    277.9    277.3       83     0.000     0.000     0.000     0.000      107        0        0        0        1       12       14    17.780       72     40.1    7.125   -9.900     1.73    0.000    0.000       11        9     2074  Maize_Short_Soroca_22May_Optimum_85_NCC.PRM
  Tot(95)       22        5     2075    152.4    553.8   1325.9   717.00      0.0    150.0      2.4      1.8      0.0    104.8       42    242.1    242.4       85     0.000     0.000     0.000     0.000      107        0        0        0        7       16       11    17.587       72     40.1    7.044   -9.900     2.03    0.000    0.000       11        9     2075  Maize_Short_Soroca_22May_Optimum_85_NCC.PRM
  Tot(96)       22        5     2076    186.1    520.2   1426.7   725.00      0.0    180.8      5.3      9.2      0.0    149.1       71    237.6    237.9       84     0.000     0.000     0.000     0.000      107        0        0        0        4        7       15    17.852       73     39.8    7.101   -9.900     1.84    0.000    0.000       11        9     2076  Maize_Short_Soroca_22May_Optimum_85_NCC.PRM
  Tot(97)       22        5     2077    102.3    625.5   1508.3   733.00      0.0    101.9      0.4      0.0      0.0    111.7       33    190.6    190.8       75     0.000     0.000     0.000     0.000       96        0        0        0        2       23       20    11.974       49     32.8    3.929   -9.900     1.33    0.000    0.000       11        9     2077  Maize_Short_Soroca_22May_Optimum_85_NCC.PRM
  Tot(98)       22        5     2078     68.6    651.3   1511.6   742.00      0.0     68.6      0.0      0.0      0.0     94.1       25    178.5    178.5       73     0.000     0.000     0.000     0.000       93        0        0        0        4       27       20    10.777       44     29.8    3.207   -9.900     1.23    0.000    0.000       11        9     2078  Maize_Short_Soroca_22May_Optimum_85_NCC.PRM
  Tot(99)       22        5     2079    163.9    505.4   1392.6   750.00      0.0    161.6      2.3      5.6      0.0    117.0       58    254.0    252.9       89     0.000     0.000     0.000     0.000      107        0        0        0        6        8        9    20.205       83     40.1    8.109   -9.900     2.19    0.000    0.000       11        9     2079  Maize_Short_Soroca_22May_Optimum_85_NCC.PRM
 Tot(100)       22        5     2080    173.3    489.5   1275.1   758.00      0.0    165.6      7.7     13.0      0.0    121.1       56    223.0    222.8       88     0.000     0.000     0.000     0.000      107        0        0        0       12       16        7    18.883       80     40.7    7.679   -9.900     2.23    0.000    0.000       11        9     2080  Maize_Short_Soroca_22May_Optimum_85_NCC.PRM
 Tot(101)       22        5     2081     86.0    631.4   1504.2   767.00      0.0     85.8      0.2      0.0      0.0    100.9       27    171.6    172.8       76     0.000     0.000     0.000     0.000      107        0        0        0        5       31       17    10.136       42     40.4    4.091   -9.900     1.50    0.000    0.000       11        9     2081  Maize_Short_Soroca_22May_Optimum_85_NCC.PRM
 Tot(102)       22        5     2082    335.2    454.8   1373.8   775.00      0.0    293.9     41.3      4.1      0.0    128.5       67    248.4    247.7      100     0.000     0.000     0.000     0.000      107        0        0        0        6        8        0    23.151       96     40.4    9.364   -9.900     2.48    0.000    0.000       11        9     2082  Maize_Short_Soroca_22May_Optimum_85_NCC.PRM
 Tot(103)       22        5     2083    206.6    558.7   1512.5   784.00      0.0    206.5      0.1      0.0      0.0    148.5       68    274.1    274.2       88     0.000     0.000     0.000     0.000      107        0        0        0        3        6       10    19.846       82     40.0    7.945   -9.900     1.88    0.000    0.000       11        9     2083  Maize_Short_Soroca_22May_Optimum_85_NCC.PRM
 Tot(104)       22        5     2084    162.7    524.8   1402.7   792.00      0.0    154.4      8.3      0.0      0.0     79.7       35    269.3    269.3       97     0.000     0.000     0.000     0.000      107        0        0        0        6        8        2    21.954       90     40.1    8.800   -9.900     2.52    0.000    0.000       11        9     2084  Maize_Short_Soroca_22May_Optimum_85_NCC.PRM
 Tot(105)       22        5     2085     85.5    710.4   1708.7   801.00      0.0     85.3      0.2      0.0      0.0    116.8       23    161.0    161.7       78     0.000     0.000     0.000     0.000       99        0        0        0        1       36       17     9.118       38     35.3    3.217   -9.900     1.19    0.000    0.000       11        9     2085  Maize_Short_Soroca_22May_Optimum_85_NCC.PRM
 Tot(106)       22        5     2086    138.7    561.6   1432.8   810.00      0.0    138.3      0.4      0.0      0.0    111.8       43    234.4    233.4       85     0.000     0.000     0.000     0.000      107        0        0        0        4        7       10    18.623       78     39.6    7.376   -9.900     2.13    0.000    0.000       11        9     2086  Maize_Short_Soroca_22May_Optimum_85_NCC.PRM
 Tot(107)       22        5     2087    156.3    545.5   1409.5   818.00      0.0    146.7      9.6     15.3      0.0    130.8       59    221.9    222.8       79     0.000     0.000     0.000     0.000      107        0        0        0        6       12       18    16.606       69     39.5    6.556   -9.900     1.86    0.000    0.000       11        9     2087  Maize_Short_Soroca_22May_Optimum_85_NCC.PRM
 Tot(108)       22        5     2088    231.9    651.7   1646.4   827.00      0.0    178.0     53.9     66.1      0.0    138.6       34    172.1    172.1       79     0.000     0.000     0.000     0.000       94        0        0        0        1       32       18    10.011       41     31.3    3.133   -9.900     1.04    0.000    0.000       11        9     2088  Maize_Short_Soroca_22May_Optimum_85_NCC.PRM
 Tot(109)       22        5     2089     99.8    676.1   1562.0   836.00      0.0     99.8      0.0      0.0      0.0    119.1       31    186.1    186.1       77     0.000     0.000     0.000     0.000       94        0        0        0        6       28       19    10.814       44     30.9    3.345   -9.900     1.12    0.000    0.000       11        9     2089  Maize_Short_Soroca_22May_Optimum_85_NCC.PRM
 Tot(110)       22        5     2090    114.0    597.4   1508.9   845.00      0.0    113.5      0.5      1.0      0.0    137.3       44    187.9    187.9       77     0.000     0.000     0.000     0.000       99        0        0        0        1       22       19    12.751       53     35.9    4.572   -9.900     1.43    0.000    0.000       11        9     2090  Maize_Short_Soroca_22May_Optimum_85_NCC.PRM
 Tot(111)       22        5     2091    252.5    521.3   1491.6   854.00      0.0    236.2     16.3     38.0      0.0    131.1       67    276.3    275.0       93     0.000     0.000     0.000     0.000      107        0        0        0        3        3        6    21.566       89     40.0    8.633   -9.900     2.12    0.000    0.000       11        9     2091  Maize_Short_Soroca_22May_Optimum_85_NCC.PRM
 Tot(112)       22        5     2092    265.4    606.2   1579.2   863.00      0.0    238.6     26.8     37.0      0.0    163.4       62    224.2    225.4       77     0.000     0.000     0.000     0.000      107        0        0        0        1        8       17    15.126       62     39.2    5.923   -9.900     1.53    0.000    0.000       11        9     2092  Maize_Short_Soroca_22May_Optimum_85_NCC.PRM
 Tot(113)       22        5     2093    299.3    597.7   1645.8   872.00      0.0    260.3     39.0     63.2      0.0    172.7       69    223.7    223.8       76     0.000     0.000     0.000     0.000      107        0        0        0        3       11       19    14.444       60     39.3    5.676   -9.900     1.43    0.000    0.000       11        9     2093  Maize_Short_Soroca_22May_Optimum_85_NCC.PRM
 Tot(114)       22        5     2094    264.9    586.3   1576.0   881.00      0.0    243.7     21.2     27.6      0.0    131.6       53    289.0    288.0       92     0.000     0.000     0.000     0.000      107        0        0        0        2        7        6    20.880       86     40.0    8.349   -9.900     1.99    0.000    0.000       11        9     2094  Maize_Short_Soroca_22May_Optimum_85_NCC.PRM
 Tot(115)       22        5     2095    219.5    598.2   1576.0   890.00      0.0    210.0      9.5      8.5      0.0    152.5       60    241.8    242.2       82     0.000     0.000     0.000     0.000      107        0        0        0        3       11       12    16.218       68     39.9    6.472   -9.900     1.64    0.000    0.000       11        9     2095  Maize_Short_Soroca_22May_Optimum_85_NCC.PRM
 Tot(116)       22        5     2096    177.1    650.6   1667.8   899.00      0.0    168.2      8.9      6.9      0.0    170.1       50    197.4    198.0       75     0.000     0.000     0.000     0.000       97        0        0        0        0       20       20    12.226       51     33.7    4.124   -9.900     1.15    0.000    0.000       11        9     2096  Maize_Short_Soroca_22May_Optimum_85_NCC.PRM
 Tot(117)       22        5     2097    166.0    661.0   1595.2   908.00      0.0    165.2      0.8      0.0      0.0    157.4       47    227.6    227.6       80     0.000     0.000     0.000     0.000      107        0        0        0        4       17       18    15.055       65     39.5    5.939   -9.900     1.54    0.000    0.000       11        9     2097  Maize_Short_Soroca_22May_Optimum_85_NCC.PRM
 Tot(118)       22        5     2098    105.7    646.7   1670.3   917.00      0.0    104.4      1.3      0.0      0.0    102.1       33    218.7    218.7       78     0.000     0.000     0.000     0.000      101        0        0        0        1       17       19    13.434       56     32.3    4.337   -9.900     1.36    0.000    0.000       11        9     2098  Maize_Short_Soroca_22May_Optimum_85_NCC.PRM
 Tot(119)       22        5     2099    155.2    542.3   1462.6   927.00      0.0    151.1      4.1      6.3      0.0    120.9       57    240.7    240.2       84     0.000     0.000     0.000     0.000      107        0        0        0        4        5       13    17.958       76     39.8    7.140   -9.900     1.97    0.000    0.000       11        9     2099  Maize_Short_Soroca_22May_Optimum_85_NCC.PRM
