AquaCrop 7.0 (August 2022) - Output created on (date) : 23-11-2022   at (time) : 11:52:43

    RunNr     Day1   Month1    Year1     Rain      ETo       GD     CO2      Irri   Infilt   Runoff    Drain   Upflow        E     E/Ex       Tr      TrW   Tr/Trx    SaltIn   SaltOut    SaltUp  SaltProf     Cycle   SaltStr  FertStr  WeedStr  TempStr   ExpStr   StoStr  BioMass  Brelative   HI    Y(dry)  Y(fresh)    WPet      Bin     Bout     DayN   MonthN    YearN
                                           mm       mm  degC.day    ppm        mm       mm       mm       mm       mm       mm        %       mm       mm        %    ton/ha    ton/ha    ton/ha    ton/ha      days       %        %        %        %        %        %    ton/ha        %       %    ton/ha   ton/ha    kg/m3   ton/ha   ton/ha
   Tot(1)       22        5     1981    112.7    489.0   1247.8   340.11      0.0    112.6      0.1      0.0      0.0     77.0       34    238.7    185.8       91     0.000     0.000     0.000     0.000      107        0       42       25       11        7        7    13.569       65     40.3    5.462   -9.900     1.73    0.000    0.000       11        9     1981  Maize_short_Chisinau_22May_NonOptimum_26_NCC.PRM
   Tot(2)       22        5     1982    204.3    456.0   1247.6   341.22      0.0    204.0      0.3      0.0      0.0    113.7       55    257.4    198.1      100     0.000     0.000     0.000     0.000      107        0       42       25        9        2        0    16.379       75     40.0    6.557   -9.900     1.77    0.000    0.000       11        9     1982  Maize_short_Chisinau_22May_NonOptimum_26_NCC.PRM
   Tot(3)       22        5     1983    263.2    457.8   1241.5   342.84      0.0    246.8     16.4     28.6      0.0    125.5       63    258.5    200.2      100     0.000     0.000     0.000     0.000      107        0       42       25       10        3        0    15.990       75     40.1    6.413   -9.900     1.67    0.000    0.000       11        9     1983  Maize_short_Chisinau_22May_NonOptimum_26_NCC.PRM
   Tot(4)       22        5     1984    214.8    437.7   1110.3   344.40      0.0    211.4      3.4      5.3      0.0    144.1       77    242.9    188.9      100     0.000     0.000     0.000     0.000      107        0       42       25       15        1        0    15.604       75     40.0    6.248   -9.900     1.61    0.000    0.000       11        9     1984  Maize_short_Chisinau_22May_NonOptimum_26_NCC.PRM
   Tot(5)       22        5     1985    293.3    457.2   1166.1   345.87      0.0    263.7     29.6     63.9      0.0    122.0       66    263.0    203.3       97     0.000     0.000     0.000     0.000      107        0       42       25       15        2        2    15.134       73     40.1    6.067   -9.900     1.58    0.000    0.000       11        9     1985  Maize_short_Chisinau_22May_NonOptimum_26_NCC.PRM
   Tot(6)       22        5     1986    182.0    520.8   1291.5   347.19      0.0    181.3      0.7      0.0      0.0    116.4       50    270.7    210.0       93     0.000     0.000     0.000     0.000      107        0       42       25        9        5        6    14.711       69     40.1    5.898   -9.900     1.52    0.000    0.000       11        9     1986  Maize_short_Chisinau_22May_NonOptimum_26_NCC.PRM
   Tot(7)       22        5     1987    250.7    477.0   1168.0   348.98      0.0    236.4     14.3     17.7      0.0    107.9       54    270.4    209.4      100     0.000     0.000     0.000     0.000      107        0       42       25       14        5        0    15.238       75     40.3    6.139   -9.900     1.62    0.000    0.000       11        9     1987  Maize_short_Chisinau_22May_NonOptimum_26_NCC.PRM
   Tot(8)       22        5     1988    311.4    459.2   1267.4   351.45      0.0    269.3     42.1     29.3      0.0    109.3       61    276.0    215.1       96     0.000     0.000     0.000     0.000      107        0       42       25       10        3        3    15.422       72     40.1    6.188   -9.900     1.61    0.000    0.000       11        9     1988  Maize_short_Chisinau_22May_NonOptimum_26_NCC.PRM
   Tot(9)       22        5     1989    328.6    451.3   1181.5   352.89      0.0    298.7     29.9      2.2      0.0    122.8       64    266.6    207.0      100     0.000     0.000     0.000     0.000      107        0       42       25       12        6        0    15.980       74     40.2    6.426   -9.900     1.65    0.000    0.000       11        9     1989  Maize_short_Chisinau_22May_NonOptimum_26_NCC.PRM
  Tot(10)       22        5     1990    157.0    493.1   1149.4   354.16      0.0    152.3      4.7     14.4      0.0    127.9       58    226.3    177.9       85     0.000     0.000     0.000     0.000      107        0       42       25       15       11       15    12.373       58     40.0    4.945   -9.900     1.40    0.000    0.000       11        9     1990  Maize_short_Chisinau_22May_NonOptimum_26_NCC.PRM
  Tot(11)       22        5     1991    405.5    420.3   1208.7   355.48      0.0    355.8     49.7     77.0      0.0    124.2       75    257.2    197.9      100     0.000     0.000     0.000     0.000      107        0       42       25       12        1        0    16.406       75     40.0    6.569   -9.900     1.72    0.000    0.000       11        9     1991  Maize_short_Chisinau_22May_NonOptimum_26_NCC.PRM
  Tot(12)       22        5     1992    188.3    518.5   1278.0   356.27      0.0    184.1      4.2      9.8      0.0    142.9       69    245.6    192.9       80     0.000     0.000     0.000     0.000      107        0       42       25       10       10       15    12.174       55     39.8    4.839   -9.900     1.25    0.000    0.000       11        9     1992  Maize_short_Chisinau_22May_NonOptimum_26_NCC.PRM
  Tot(13)       22        5     1993    166.0    491.7   1142.1   356.95      0.0    165.4      0.6      0.6      0.0    100.5       48    257.7    198.4       96     0.000     0.000     0.000     0.000      107        0       42       25       16        3        3    14.101       71     40.1    5.653   -9.900     1.58    0.000    0.000       11        9     1993  Maize_short_Chisinau_22May_NonOptimum_26_NCC.PRM
  Tot(14)       22        5     1994    259.6    519.0   1314.2   358.63      0.0    220.5     39.1     11.8      0.0    105.0       44    265.8    208.4       90     0.000     0.000     0.000     0.000      107        0       42       25       10       12        6    14.401       63     40.5    5.825   -9.900     1.57    0.000    0.000       11        9     1994  Maize_short_Chisinau_22May_NonOptimum_26_NCC.PRM
  Tot(15)       22        5     1995    240.9    497.5   1341.7   360.62      0.0    225.7     15.2      1.4      0.0     92.6       40    269.9    210.0       96     0.000     0.000     0.000     0.000      107        0       42       25        5        7        2    15.683       70     40.2    6.306   -9.900     1.74    0.000    0.000       11        9     1995  Maize_short_Chisinau_22May_NonOptimum_26_NCC.PRM
  Tot(16)       22        5     1996    178.3    510.0   1221.6   362.37      0.0    174.6      3.7      2.9      0.0     99.7       37    225.6    178.8       92     0.000     0.000     0.000     0.000      107        0       42       25       12       18        5    13.184       63     40.6    5.346   -9.900     1.64    0.000    0.000       11        9     1996  Maize_short_Chisinau_22May_NonOptimum_26_NCC.PRM
  Tot(17)       22        5     1997    330.1    417.1   1153.3   363.47      0.0    310.1     20.0      0.0      0.0    110.0       60    233.5    180.9      100     0.000     0.000     0.000     0.000      107        0       42       25       13        0        0    16.205       75     40.0    6.482   -9.900     1.89    0.000    0.000       11        9     1997  Maize_short_Chisinau_22May_NonOptimum_26_NCC.PRM
  Tot(18)       22        5     1998    213.1    479.8   1242.4   366.50      0.0    207.8      5.3      0.7      0.0    115.1       59    266.4    205.5       95     0.000     0.000     0.000     0.000      107        0       42       25       13        2        3    14.606       71     40.1    5.854   -9.900     1.53    0.000    0.000       11        9     1998  Maize_short_Chisinau_22May_NonOptimum_26_NCC.PRM
  Tot(19)       22        5     1999    155.4    516.5   1415.8   368.14      0.0    153.9      1.5      0.0      0.0    105.1       43    252.3    197.1       88     0.000     0.000     0.000     0.000      107        0       42       25        3       15        9    14.276       62     40.5    5.782   -9.900     1.62    0.000    0.000       11        9     1999  Maize_short_Chisinau_22May_NonOptimum_26_NCC.PRM
  Tot(20)       22        5     2000    200.0    540.4   1259.7   369.41      0.0    193.4      6.6      0.0      0.0     72.3       28    279.5    218.2       97     0.000     0.000     0.000     0.000      107        0       42       25       12        8        1    15.054       70     40.1    6.033   -9.900     1.72    0.000    0.000       11        9     2000  Maize_short_Chisinau_22May_NonOptimum_26_NCC.PRM
  Tot(21)       22        5     2001    281.1    504.5   1316.2   371.07      0.0    245.1     36.0     26.0      0.0    132.2       60    241.5    189.5       84     0.000     0.000     0.000     0.000      107        0       42       25        9        8       12    12.731       56     39.8    5.068   -9.900     1.36    0.000    0.000       11        9     2001  Maize_short_Chisinau_22May_NonOptimum_26_NCC.PRM
  Tot(22)       22        5     2002    297.2    513.7   1401.0   373.16      0.0    270.0     27.2      3.8      0.0    111.4       47    297.6    232.6      100     0.000     0.000     0.000     0.000      107        0       42       25        5       10        0    16.950       72     40.0    6.784   -9.900     1.66    0.000    0.000       11        9     2002  Maize_short_Chisinau_22May_NonOptimum_26_NCC.PRM
  Tot(23)       22        5     2003    199.3    543.0   1313.0   375.80      0.0    197.8      1.5      0.0      0.0     98.0       37    284.3    220.5       99     0.000     0.000     0.000     0.000      107        0       42       25        8        4        1    15.842       72     40.0    6.343   -9.900     1.66    0.000    0.000       11        9     2003  Maize_short_Chisinau_22May_NonOptimum_26_NCC.PRM
  Tot(24)       22        5     2004    212.6    500.0   1203.6   377.49      0.0    201.0     11.6      4.7      0.0    100.0       44    275.9    215.6      100     0.000     0.000     0.000     0.000      107        0       42       25       11        5        0    16.207       74     40.1    6.504   -9.900     1.73    0.000    0.000       11        9     2004  Maize_short_Chisinau_22May_NonOptimum_26_NCC.PRM
  Tot(25)       22        5     2005    280.2    489.9   1320.0   379.80      0.0    268.2     12.0      8.5      0.0    136.2       63    286.2    220.0      100     0.000     0.000     0.000     0.000      107        0       42       25        7        4        0    17.321       75     40.3    6.975   -9.900     1.65    0.000    0.000       11        9     2005  Maize_short_Chisinau_22May_NonOptimum_26_NCC.PRM
  Tot(26)       22        5     2006    278.5    526.4   1284.9   381.90      0.0    269.3      9.2     16.0      0.0    136.6       60    298.8    233.7       97     0.000     0.000     0.000     0.000      107        0       42       25       10       10        3    15.974       71     40.5    6.474   -9.900     1.49    0.000    0.000       11        9     2006  Maize_short_Chisinau_22May_NonOptimum_26_NCC.PRM
  Tot(27)       22        5     2007    161.9    617.8   1470.3   383.77      0.0    161.4      0.5      0.0      0.0    116.1       35    245.5    195.4       83     0.000     0.000     0.000     0.000      107        0       42       25        4       26       12    11.921       52     40.6    4.839   -9.900     1.34    0.000    0.000       11        9     2007  Maize_short_Chisinau_22May_NonOptimum_26_NCC.PRM
  Tot(28)       22        5     2008    182.6    561.4   1363.1   385.59      0.0    176.9      5.7      0.0      0.0    116.7       46    277.8    217.6       87     0.000     0.000     0.000     0.000      107        0       42       25        5        9       11    14.297       61     39.7    5.677   -9.900     1.44    0.000    0.000       11        9     2008  Maize_short_Chisinau_22May_NonOptimum_26_NCC.PRM
  Tot(29)       22        5     2009    196.0    575.6   1374.3   387.37      0.0    194.3      1.7      0.0      0.0    110.1       41    287.8    222.7       89     0.000     0.000     0.000     0.000      107        0       42       25        5       10        9    14.566       62     40.2    5.853   -9.900     1.47    0.000    0.000       11        9     2009  Maize_short_Chisinau_22May_NonOptimum_26_NCC.PRM
  Tot(30)       22        5     2010    257.3    510.9   1415.8   389.85      0.0    240.3     17.0     19.1      0.0    119.7       54    279.4    217.9       93     0.000     0.000     0.000     0.000      107        0       42       25        7        2        4    15.516       69     40.0    6.199   -9.900     1.55    0.000    0.000       11        9     2010  Maize_short_Chisinau_22May_NonOptimum_26_NCC.PRM
  Tot(31)       22        5     2011    216.4    549.6   1380.9   391.63      0.0    201.6     14.8     17.5      0.0    132.6       53    266.5    207.5       86     0.000     0.000     0.000     0.000      107        0       42       25        5        6       12    14.154       61     39.8    5.628   -9.900     1.41    0.000    0.000       11        9     2011  Maize_short_Chisinau_22May_NonOptimum_26_NCC.PRM
  Tot(32)       22        5     2012    177.6    615.9   1446.5   393.82      0.0    168.8      8.8     12.1      0.0    107.7       37    267.2    210.4       81     0.000     0.000     0.000     0.000      107        0       42       25        4       16       16    12.383       53     40.1    4.966   -9.900     1.32    0.000    0.000       11        9     2012  Maize_short_Chisinau_22May_NonOptimum_26_NCC.PRM
  Tot(33)       22        5     2013    299.8    518.6   1351.6   396.48      0.0    269.2     30.6     27.2      0.0    140.8       64    290.2    224.6       94     0.000     0.000     0.000     0.000      107        0       42       25        6        5        4    16.099       70     40.2    6.475   -9.900     1.50    0.000    0.000       11        9     2013  Maize_short_Chisinau_22May_NonOptimum_26_NCC.PRM
  Tot(34)       22        5     2014    198.3    560.2   1404.9   398.55      0.0    195.8      2.5      1.7      0.0    113.0       48    296.0    230.5       88     0.000     0.000     0.000     0.000      107        0       42       25        5        6       10    15.018       63     39.9    5.993   -9.900     1.47    0.000    0.000       11        9     2014  Maize_short_Chisinau_22May_NonOptimum_26_NCC.PRM
  Tot(35)       22        5     2015    123.3    607.4   1433.1   401.00      0.0    122.9      0.4      0.0      0.0    109.3       35    226.7    179.2       79     0.000     0.000     0.000     0.000      104        0       42       25        5       18       19    10.841       46     40.0    4.334   -9.900     1.29    0.000    0.000       11        9     2015  Maize_short_Chisinau_22May_NonOptimum_26_NCC.PRM
  Tot(36)       22        5     2016    224.9    558.8   1444.3   403.00      0.0    206.2     18.7     39.9      0.0    145.6       57    239.5    188.1       80     0.000     0.000     0.000     0.000      107        0       42       25        4       17       19    11.868       50     40.0    4.742   -9.900     1.23    0.000    0.000       11        9     2016  Maize_short_Chisinau_22May_NonOptimum_26_NCC.PRM
  Tot(37)       22        5     2017    256.1    554.9   1388.6   405.00      0.0    243.1     13.0      9.7      0.0    125.5       53    314.6    242.9       96     0.000     0.000     0.000     0.000      107        0       42       25        5        4        4    16.400       70     40.1    6.570   -9.900     1.49    0.000    0.000       11        9     2017  Maize_short_Chisinau_22May_NonOptimum_26_NCC.PRM
  Tot(38)       22        5     2018    285.1    545.5   1487.3   408.00      0.0    268.7     16.4     20.6      0.0    120.4       48    304.1    236.0       96     0.000     0.000     0.000     0.000      107        0       42       25        3        2        3    16.989       71     39.9    6.787   -9.900     1.60    0.000    0.000       11        9     2018  Maize_short_Chisinau_22May_NonOptimum_26_NCC.PRM
  Tot(39)       22        5     2019    214.6    570.8   1477.1   410.00      0.0    207.5      7.1     13.9      0.0    141.2       55    273.3    213.6       85     0.000     0.000     0.000     0.000      107        0       42       25        2       11       12    14.286       60     40.0    5.716   -9.900     1.38    0.000    0.000       11        9     2019  Maize_short_Chisinau_22May_NonOptimum_26_NCC.PRM
  Tot(40)       22        5     2020    139.3    533.4   1290.4   412.00      0.0    136.9      2.4      8.7      0.0    103.8       42    242.2    189.4       84     0.000     0.000     0.000     0.000      107        0       42       25        6       15       12    13.320       58     40.3    5.366   -9.900     1.55    0.000    0.000       11        9     2020  Maize_short_Chisinau_22May_NonOptimum_26_NCC.PRM
  Tot(41)       22        5     2021    112.0    556.1   1200.2   414.00      0.0    108.3      3.7      3.1      0.0     94.1       39    230.2    179.8       78     0.000     0.000     0.000     0.000      105        0       42       25       14        8       20    11.236       50     39.0    4.387   -9.900     1.36    0.000    0.000       11        9     2021  Maize_short_Chisinau_22May_NonOptimum_26_NCC.PRM
  Tot(42)       22        5     2022    109.1    638.8   1510.8   417.00      0.0    107.8      1.3      7.1      0.0    123.0       31    177.6    142.4       76     0.000     0.000     0.000     0.000       91        0       42       25        1       30       20     7.546       31     28.0    2.114   -9.900     0.71    0.000    0.000       11        9     2022  Maize_short_Chisinau_22May_NonOptimum_26_NCC.PRM
  Tot(43)       22        5     2023    134.2    542.2   1302.4   419.00      0.0    127.6      6.6     14.7      0.0    120.0       47    212.2    167.3       76     0.000     0.000     0.000     0.000      106        0       42       25        8       20       21    11.080       48     39.5    4.372   -9.900     1.32    0.000    0.000       11        9     2023  Maize_short_Chisinau_22May_NonOptimum_26_NCC.PRM
  Tot(44)       22        5     2024    122.2    562.6   1223.9   421.00      0.0    115.6      6.6     14.3      0.0    116.0       44    204.4    161.1       72     0.000     0.000     0.000     0.000      104        0       42       25       13       22       24     9.824       43     39.3    3.865   -9.900     1.21    0.000    0.000       11        9     2024  Maize_short_Chisinau_22May_NonOptimum_26_NCC.PRM
  Tot(45)       22        5     2025    182.3    509.9   1239.6   423.00      0.0    172.3     10.0     28.4      0.0    131.7       65    226.1    176.5       78     0.000     0.000     0.000     0.000      102        0       42       25       13        9       19    11.173       48     38.3    4.278   -9.900     1.21    0.000    0.000       11        9     2025  Maize_short_Chisinau_22May_NonOptimum_26_NCC.PRM
  Tot(46)       22        5     2026    321.7    497.7   1120.1   424.00      0.0    273.6     48.1     40.4      0.0    141.4       69    244.4    189.3       86     0.000     0.000     0.000     0.000      107        0       42       25       17        4       10    13.143       63     39.8    5.229   -9.900     1.36    0.000    0.000       11        9     2026  Maize_short_Chisinau_22May_NonOptimum_26_NCC.PRM
  Tot(47)       22        5     2027    153.0    625.6   1484.7   426.00      0.0    152.0      1.0      2.2      0.0    141.1       42    219.8    174.4       78     0.000     0.000     0.000     0.000       96        0       42       25        2       23       19     9.592       39     33.1    3.170   -9.900     0.89    0.000    0.000       11        9     2027  Maize_short_Chisinau_22May_NonOptimum_26_NCC.PRM
  Tot(48)       22        5     2028     75.5    587.4   1370.4   428.00      0.0     75.5      0.0      0.0      0.0     79.3       26    211.9    167.7       78     0.000     0.000     0.000     0.000       99        0       42       25       10       22       19    10.231       42     35.9    3.677   -9.900     1.27    0.000    0.000       11        9     2028  Maize_short_Chisinau_22May_NonOptimum_26_NCC.PRM
  Tot(49)       22        5     2029    166.3    437.9    997.2   429.00      0.0    161.4      4.9     23.1      0.0    104.6       62    237.3    182.8       94     0.000     0.000     0.000     0.000      107        0       42       25       22        2        5    14.564       71     40.0    5.831   -9.900     1.71    0.000    0.000       11        9     2029  Maize_short_Chisinau_22May_NonOptimum_26_NCC.PRM
  Tot(50)       22        5     2030     95.8    639.4   1398.3   431.00      0.0     95.7      0.1      0.0      0.0    105.1       29    194.2    155.0       75     0.000     0.000     0.000     0.000       93        0       42       25        4       25       20     8.639       37     29.8    2.574   -9.900     0.87    0.000    0.000       11        9     2030  Maize_short_Chisinau_22May_NonOptimum_26_NCC.PRM
  Tot(51)       22        5     2031     35.9    625.3   1440.7   432.00      0.0     35.9      0.0      0.0      0.0     65.9       18    174.3    139.7       75     0.000     0.000     0.000     0.000       91        0       42       25        5       30       19     7.919       32     28.0    2.215   -9.900     0.93    0.000    0.000       11        9     2031  Maize_short_Chisinau_22May_NonOptimum_26_NCC.PRM
  Tot(52)       22        5     2032    105.0    545.4   1319.3   433.00      0.0    105.0      0.0      0.0      0.0     99.4       42    226.7    177.1       79     0.000     0.000     0.000     0.000      105        0       42       25        7        8       19    11.795       50     39.2    4.619   -9.900     1.42    0.000    0.000       11        9     2032  Maize_short_Chisinau_22May_NonOptimum_26_NCC.PRM
  Tot(53)       22        5     2033    136.6    545.4   1270.2   435.00      0.0    136.4      0.2      0.0      0.0    106.1       44    239.2    187.2       80     0.000     0.000     0.000     0.000      107        0       42       25       10       13       15    12.025       52     40.2    4.833   -9.900     1.40    0.000    0.000       11        9     2033  Maize_short_Chisinau_22May_NonOptimum_26_NCC.PRM
  Tot(54)       22        5     2034    190.5    524.8   1159.4   436.00      0.0    172.3     18.2     39.2      0.0    121.3       56    228.1    178.0       81     0.000     0.000     0.000     0.000      105        0       42       25       15        8       18    11.314       51     39.6    4.485   -9.900     1.28    0.000    0.000       11        9     2034  Maize_short_Chisinau_22May_NonOptimum_26_NCC.PRM
  Tot(55)       22        5     2035     55.3    579.5   1314.1   437.00      0.0     55.3      0.0      0.0      0.0     70.0       22    194.1    153.6       76     0.000     0.000     0.000     0.000       96        0       42       25        7       22       19     9.507       41     33.0    3.135   -9.900     1.19    0.000    0.000       11        9     2035  Maize_short_Chisinau_22May_NonOptimum_26_NCC.PRM
  Tot(56)       22        5     2036    145.3    476.0   1128.8   438.00      0.0    142.9      2.4      2.2      0.0    115.5       61    242.4    187.7       88     0.000     0.000     0.000     0.000      107        0       42       25       16        2       11    14.361       65     39.8    5.715   -9.900     1.60    0.000    0.000       11        9     2036  Maize_short_Chisinau_22May_NonOptimum_26_NCC.PRM
  Tot(57)       22        5     2037    121.4    561.4   1355.5   438.00      0.0    121.3      0.1      0.5      0.0     98.1       39    239.5    187.3       79     0.000     0.000     0.000     0.000      107        0       42       25        5       10       18    12.266       51     39.8    4.877   -9.900     1.44    0.000    0.000       11        9     2037  Maize_short_Chisinau_22May_NonOptimum_26_NCC.PRM
  Tot(58)       22        5     2038    115.9    621.4   1446.0   439.00      0.0    115.8      0.1      0.0      0.0    131.0       36    192.3    153.0       76     0.000     0.000     0.000     0.000       95        0       42       25        2       25       19     9.007       39     32.0    2.881   -9.900     0.92    0.000    0.000       11        9     2038  Maize_short_Chisinau_22May_NonOptimum_26_NCC.PRM
  Tot(59)       22        5     2039    113.5    518.7   1196.8   440.00      0.0    112.6      0.9      0.0      0.0     87.6       37    231.7    180.2       84     0.000     0.000     0.000     0.000      107        0       42       25       12       13       12    13.009       60     40.4    5.249   -9.900     1.64    0.000    0.000       11        9     2039  Maize_short_Chisinau_22May_NonOptimum_26_NCC.PRM
  Tot(60)       22        5     2040    125.0    618.8   1409.8   440.00      0.0    124.8      0.2      0.0      0.0    119.5       40    222.7    174.8       74     0.000     0.000     0.000     0.000       99        0       42       25        6       15       21    10.013       42     35.2    3.526   -9.900     1.03    0.000    0.000       11        9     2040  Maize_short_Chisinau_22May_NonOptimum_26_NCC.PRM
  Tot(61)       22        5     2041    220.1    476.6   1180.1   441.00      0.0    215.2      4.9      6.6      0.0    137.6       68    266.1    206.5       97     0.000     0.000     0.000     0.000      107        0       42       25       13       11        3    15.941       71     40.6    6.465   -9.900     1.60    0.000    0.000       11        9     2041  Maize_short_Chisinau_22May_NonOptimum_26_NCC.PRM
  Tot(62)       22        5     2042    104.0    574.9   1341.5   441.00      0.0    103.9      0.1      0.0      0.0    110.5       38    201.6    160.1       75     0.000     0.000     0.000     0.000       95        0       42       25        8       22       20     9.410       40     31.8    2.989   -9.900     1.00    0.000    0.000       11        9     2042  Maize_short_Chisinau_22May_NonOptimum_26_NCC.PRM
  Tot(63)       22        5     2043    125.3    517.3   1223.5   441.00      0.0    121.9      3.4     10.7      0.0    111.5       50    221.3    172.9       81     0.000     0.000     0.000     0.000      107        0       42       25       10       12       19    12.174       52     39.7    4.827   -9.900     1.45    0.000    0.000       11        9     2043  Maize_short_Chisinau_22May_NonOptimum_26_NCC.PRM
  Tot(64)       22        5     2044    148.3    552.0   1266.0   442.00      0.0    144.2      4.1      7.1      0.0    121.0       52    236.3    184.1       80     0.000     0.000     0.000     0.000      104        0       42       25       12        8       19    11.463       50     39.3    4.506   -9.900     1.26    0.000    0.000       11        9     2044  Maize_short_Chisinau_22May_NonOptimum_26_NCC.PRM
  Tot(65)       22        5     2045     88.1    569.6   1285.9   442.00      0.0     86.7      1.4      2.9      0.0    104.3       35    189.9    150.0       77     0.000     0.000     0.000     0.000       95        0       42       25        7       23       20     9.243       40     31.9    2.952   -9.900     1.02    0.000    0.000       11        9     2045  Maize_short_Chisinau_22May_NonOptimum_26_NCC.PRM
  Tot(66)       22        5     2046    140.4    597.2   1439.9   442.00      0.0    134.4      6.0      4.6      0.0    142.1       46    199.7    157.4       75     0.000     0.000     0.000     0.000       94        0       42       25        2       20       20     9.464       39     31.0    2.932   -9.900     0.86    0.000    0.000       11        9     2046  Maize_short_Chisinau_22May_NonOptimum_26_NCC.PRM
  Tot(67)       22        5     2047    166.5    486.2   1158.2   442.00      0.0    155.7     10.8     13.6      0.0    124.0       61    235.2    183.0       86     0.000     0.000     0.000     0.000      107        0       42       25       13        7       13    14.035       63     39.8    5.583   -9.900     1.55    0.000    0.000       11        9     2047  Maize_short_Chisinau_22May_NonOptimum_26_NCC.PRM
  Tot(68)       22        5     2048    118.0    532.6   1279.5   442.00      0.0    118.0      0.0      0.0      0.0    109.6       43    220.4    173.1       79     0.000     0.000     0.000     0.000      107        0       42       25       10       18       14    11.987       53     40.5    4.849   -9.900     1.47    0.000    0.000       11        9     2048  Maize_short_Chisinau_22May_NonOptimum_26_NCC.PRM
  Tot(69)       22        5     2049    139.6    555.9   1321.4   443.00      0.0    137.7      1.9      0.9      0.0    127.6       43    205.9    164.5       81     0.000     0.000     0.000     0.000      107        0       42       25        7       26       16    10.447       45     40.4    4.218   -9.900     1.27    0.000    0.000       11        9     2049  Maize_short_Chisinau_22May_NonOptimum_26_NCC.PRM
  Tot(70)       22        5     2050    159.6    588.7   1349.7   443.00      0.0    141.4     18.2      0.0      0.0    109.9       32    177.7    142.1       75     0.000     0.000     0.000     0.000       92        0       42       25        6       28       20     8.182       34     28.9    2.366   -9.900     0.90    0.000    0.000       11        9     2050  Maize_short_Chisinau_22May_NonOptimum_26_NCC.PRM
  Tot(71)       22        5     2051    139.9    515.2   1278.5   443.00      0.0    139.0      0.9      5.4      0.0    111.7       51    235.2    183.3       82     0.000     0.000     0.000     0.000      107        0       42       25        9        9       15    12.715       55     40.0    5.086   -9.900     1.47    0.000    0.000       11        9     2051  Maize_short_Chisinau_22May_NonOptimum_26_NCC.PRM
  Tot(72)       22        5     2052    213.0    459.1   1108.4   443.00      0.0    187.5     25.5     32.7      0.0    103.7       52    246.0    191.1       97     0.000     0.000     0.000     0.000      107        0       42       25       18       10        3    15.272       72     40.6    6.201   -9.900     1.77    0.000    0.000       11        9     2052  Maize_short_Chisinau_22May_NonOptimum_26_NCC.PRM
  Tot(73)       22        5     2053    221.9    492.2   1267.4   443.00      0.0    210.6     11.3     30.1      0.0    122.5       66    245.5    191.3       82     0.000     0.000     0.000     0.000      107        0       42       25        8       12       15    13.298       57     39.8    5.289   -9.900     1.44    0.000    0.000       11        9     2053  Maize_short_Chisinau_22May_NonOptimum_26_NCC.PRM
  Tot(74)       22        5     2054     81.9    659.1   1412.5   443.00      0.0     81.9      0.0      0.0      0.0     96.8       24    185.4    148.4       76     0.000     0.000     0.000     0.000       91        0       42       25        2       28       19     8.017       33     28.3    2.268   -9.900     0.84    0.000    0.000       11        9     2054  Maize_short_Chisinau_22May_NonOptimum_26_NCC.PRM
  Tot(75)       22        5     2055    163.7    567.4   1339.5   443.00      0.0    138.3     25.4     33.6      0.0    111.3       40    205.4    161.3       77     0.000     0.000     0.000     0.000       96        0       42       25        7       19       19     9.746       41     33.1    3.223   -9.900     1.03    0.000    0.000       11        9     2055  Maize_short_Chisinau_22May_NonOptimum_26_NCC.PRM
  Tot(76)       22        5     2056    209.2    566.4   1352.0   442.00      0.0    199.5      9.7      7.2      0.0    117.4       48    277.3    215.4       85     0.000     0.000     0.000     0.000      107        0       42       25        7        5       13    13.753       58     39.6    5.443   -9.900     1.38    0.000    0.000       11        9     2056  Maize_short_Chisinau_22May_NonOptimum_26_NCC.PRM
  Tot(77)       22        5     2057    239.1    533.6   1371.5   442.00      0.0    233.3      5.8      0.0      0.0    146.7       68    298.0    230.9       91     0.000     0.000     0.000     0.000      107        0       42       25        6        2        8    16.097       67     39.9    6.417   -9.900     1.44    0.000    0.000       11        9     2057  Maize_short_Chisinau_22May_NonOptimum_26_NCC.PRM
  Tot(78)       22        5     2058    167.6    571.3   1405.0   442.00      0.0    161.2      6.4     13.1      0.0    122.4       41    230.5    184.2       82     0.000     0.000     0.000     0.000      107        0       42       25        6       25       15    11.915       51     40.5    4.823   -9.900     1.37    0.000    0.000       11        9     2058  Maize_short_Chisinau_22May_NonOptimum_26_NCC.PRM
  Tot(79)       22        5     2059    111.3    570.3   1348.2   442.00      0.0    108.5      2.8      3.7      0.0    104.2       36    213.9    168.0       81     0.000     0.000     0.000     0.000      102        0       42       25        9       19       18    10.468       46     39.2    4.104   -9.900     1.29    0.000    0.000       11        9     2059  Maize_short_Chisinau_22May_NonOptimum_26_NCC.PRM
  Tot(80)       22        5     2060    104.7    546.0   1322.8   442.00      0.0    104.3      0.4      0.9      0.0    110.6       42    206.9    162.5       77     0.000     0.000     0.000     0.000       99        0       42       25        6       16       19    10.394       45     35.8    3.717   -9.900     1.17    0.000    0.000       11        9     2060  Maize_short_Chisinau_22May_NonOptimum_26_NCC.PRM
  Tot(81)       22        5     2061    173.2    568.9   1285.0   441.00      0.0    156.1     17.1     21.1      0.0    117.7       47    238.1    185.9       80     0.000     0.000     0.000     0.000      104        0       42       25        8        9       19    11.797       49     39.2    4.630   -9.900     1.30    0.000    0.000       11        9     2061  Maize_short_Chisinau_22May_NonOptimum_26_NCC.PRM
  Tot(82)       22        5     2062     87.5    601.8   1358.5   441.00      0.0     87.5      0.0      0.0      0.0    108.2       29    183.9    147.2       80     0.000     0.000     0.000     0.000       98        0       42       25        5       30       18     9.048       38     35.3    3.192   -9.900     1.11    0.000    0.000       11        9     2062  Maize_short_Chisinau_22May_NonOptimum_26_NCC.PRM
  Tot(83)       22        5     2063     97.2    604.8   1325.0   441.00      0.0     94.3      2.9      9.2      0.0     93.6       31    204.3    160.5       74     0.000     0.000     0.000     0.000       94        0       42       25       12       19       21     9.284       38     30.6    2.841   -9.900     0.96    0.000    0.000       11        9     2063  Maize_short_Chisinau_22May_NonOptimum_26_NCC.PRM
  Tot(84)       22        5     2064    109.9    596.6   1379.7   440.00      0.0    109.6      0.3      0.0      0.0    120.7       38    198.4    156.8       75     0.000     0.000     0.000     0.000       96        0       42       25        6       21       20     9.519       41     32.8    3.126   -9.900     1.02    0.000    0.000       11        9     2064  Maize_short_Chisinau_22May_NonOptimum_26_NCC.PRM
  Tot(85)       22        5     2065     99.7    595.9   1330.7   440.00      0.0     96.7      3.0      4.4      0.0    113.0       37    195.8    154.2       75     0.000     0.000     0.000     0.000      107        0       42       25        6       20       27     9.793       41     33.7    3.304   -9.900     1.07    0.000    0.000       11        9     2065  Maize_short_Chisinau_22May_NonOptimum_26_NCC.PRM
  Tot(86)       22        5     2066     64.4    658.8   1405.1   440.00      0.0     60.4      4.0      8.8      0.0     73.9       19    184.1    147.3       74     0.000     0.000     0.000     0.000       92        0       42       25        4       28       19     8.155       34     28.8    2.351   -9.900     0.92    0.000    0.000       11        9     2066  Maize_short_Chisinau_22May_NonOptimum_26_NCC.PRM
  Tot(87)       22        5     2067    152.8    509.4   1273.6   439.00      0.0    149.5      3.3      7.2      0.0    133.2       59    223.4    175.0       81     0.000     0.000     0.000     0.000      107        0       42       25       10       14       18    12.124       52     39.9    4.833   -9.900     1.36    0.000    0.000       11        9     2067  Maize_short_Chisinau_22May_NonOptimum_26_NCC.PRM
  Tot(88)       22        5     2068    217.4    531.5   1377.5   439.00      0.0    213.9      3.5     10.5      0.0    131.8       58    282.3    220.5       90     0.000     0.000     0.000     0.000      107        0       42       25        6       18        8    15.366       63     40.6    6.234   -9.900     1.51    0.000    0.000       11        9     2068  Maize_short_Chisinau_22May_NonOptimum_26_NCC.PRM
  Tot(89)       22        5     2069    111.9    591.7   1328.8   438.00      0.0    109.0      2.9      0.9      0.0     96.5       33    227.3    180.7       78     0.000     0.000     0.000     0.000      101        0       42       25       10       19       19    10.557       46     37.6    3.970   -9.900     1.23    0.000    0.000       11        9     2069  Maize_short_Chisinau_22May_NonOptimum_26_NCC.PRM
  Tot(90)       22        5     2070    116.7    567.2   1343.2   437.00      0.0    115.8      0.9      0.0      0.0    123.8       43    204.9    161.6       78     0.000     0.000     0.000     0.000      100        0       42       25        5       18       19    10.336       44     37.0    3.826   -9.900     1.18    0.000    0.000       11        9     2070  Maize_short_Chisinau_22May_NonOptimum_26_NCC.PRM
  Tot(91)       22        5     2071    131.8    556.8   1306.3   437.00      0.0    129.0      2.8      0.0      0.0    105.8       37    211.1    166.3       79     0.000     0.000     0.000     0.000      107        0       42       25        8       19       16    11.241       49     40.2    4.519   -9.900     1.43    0.000    0.000       11        9     2071  Maize_short_Chisinau_22May_NonOptimum_26_NCC.PRM
  Tot(92)       22        5     2072    182.9    470.1   1208.4   436.00      0.0    178.7      4.2      5.1      0.0    115.4       70    269.5    208.7       91     0.000     0.000     0.000     0.000      107        0       42       25        8        1        8    15.769       69     39.8    6.277   -9.900     1.63    0.000    0.000       11        9     2072  Maize_short_Chisinau_22May_NonOptimum_26_NCC.PRM
  Tot(93)       22        5     2073     74.5    610.9   1378.3   436.00      0.0     70.8      3.7     10.7      0.0     81.0       24    186.9    148.9       76     0.000     0.000     0.000     0.000       92        0       42       25        7       26       19     8.508       35     29.2    2.482   -9.900     0.93    0.000    0.000       11        9     2073  Maize_short_Chisinau_22May_NonOptimum_26_NCC.PRM
  Tot(94)       22        5     2074    214.7    436.0   1119.2   435.00      0.0    209.5      5.2     13.5      0.0    109.0       58    231.8    177.3      100     0.000     0.000     0.000     0.000      107        0       42       25       16        1        0    15.558       75     40.0    6.226   -9.900     1.83    0.000    0.000       11        9     2074  Maize_short_Chisinau_22May_NonOptimum_26_NCC.PRM
  Tot(95)       22        5     2075     98.9    579.1   1370.9   435.00      0.0     98.6      0.3      0.0      0.0    114.6       37    198.3    158.9       78     0.000     0.000     0.000     0.000      107        0       42       25        4       23       22     9.929       42     40.0    3.970   -9.900     1.27    0.000    0.000       11        9     2075  Maize_short_Chisinau_22May_NonOptimum_26_NCC.PRM
  Tot(96)       22        5     2076    201.7    555.7   1308.7   434.00      0.0    197.7      4.0     12.2      0.0    154.4       60    221.8    173.8       78     0.000     0.000     0.000     0.000      107        0       42       25       11       17       15    11.078       49     40.1    4.445   -9.900     1.18    0.000    0.000       11        9     2076  Maize_short_Chisinau_22May_NonOptimum_26_NCC.PRM
  Tot(97)       22        5     2077    197.4    464.1   1198.6   433.00      0.0    194.0      3.4      3.3      0.0    110.1       58    262.7    204.3       98     0.000     0.000     0.000     0.000      107        0       42       25       13        4        1    16.088       74     40.2    6.461   -9.900     1.73    0.000    0.000       11        9     2077  Maize_short_Chisinau_22May_NonOptimum_26_NCC.PRM
  Tot(98)       22        5     2078    177.7    608.9   1406.1   433.00      0.0    172.6      5.1     10.4      0.0    153.1       48    201.7    159.9       74     0.000     0.000     0.000     0.000       95        0       42       25        4       21       20     9.333       41     31.7    2.955   -9.900     0.85    0.000    0.000       11        9     2078  Maize_short_Chisinau_22May_NonOptimum_26_NCC.PRM
  Tot(99)       22        5     2079    113.8    603.6   1328.4   432.00      0.0    106.6      7.2      9.4      0.0     96.0       30    209.2    165.7       77     0.000     0.000     0.000     0.000      107        0       42       25       10       23       21     9.688       41     40.1    3.888   -9.900     1.27    0.000    0.000       11        9     2079  Maize_short_Chisinau_22May_NonOptimum_26_NCC.PRM
 Tot(100)       22        5     2080    126.3    561.4   1323.6   432.00      0.0    125.7      0.6      0.3      0.0    120.2       43    207.7    163.3       77     0.000     0.000     0.000     0.000       99        0       42       25        6       16       19     9.982       43     35.9    3.587   -9.900     1.13    0.000    0.000       11        9     2080  Maize_short_Chisinau_22May_NonOptimum_26_NCC.PRM
 Tot(101)       22        5     2081    125.4    591.8   1402.8   431.00      0.0    124.6      0.8      1.2      0.0    138.2       44    197.7    155.9       76     0.000     0.000     0.000     0.000       95        0       42       25        3       20       19     9.594       40     32.1    3.078   -9.900     0.92    0.000    0.000       11        9     2081  Maize_short_Chisinau_22May_NonOptimum_26_NCC.PRM
 Tot(102)       22        5     2082    168.2    497.0   1253.0   431.00      0.0    164.4      3.8     12.6      0.0    114.4       54    253.8    196.9       88     0.000     0.000     0.000     0.000      107        0       42       25        8        6       10    14.935       64     40.0    5.975   -9.900     1.62    0.000    0.000       11        9     2082  Maize_short_Chisinau_22May_NonOptimum_26_NCC.PRM
 Tot(103)       22        5     2083    110.0    565.2   1358.4   430.00      0.0    110.0      0.0      0.0      0.0    100.0       41    232.9    182.3       75     0.000     0.000     0.000     0.000      105        0       42       25        5       10       22    11.330       48     38.9    4.409   -9.900     1.33    0.000    0.000       11        9     2083  Maize_short_Chisinau_22May_NonOptimum_26_NCC.PRM
 Tot(104)       22        5     2084    112.8    592.1   1475.1   429.00      0.0    111.0      1.8      3.6      0.0    123.9       39    197.7    157.3       75     0.000     0.000     0.000     0.000      107        0       42       25        4       27       23     9.489       39     40.0    3.796   -9.900     1.18    0.000    0.000       11        9     2084  Maize_short_Chisinau_22May_NonOptimum_26_NCC.PRM
 Tot(105)       22        5     2085    201.3    513.5   1182.8   429.00      0.0    173.7     27.6     28.6      0.0    119.1       55    230.9    180.4       81     0.000     0.000     0.000     0.000      107        0       42       25       11        9       15    11.919       55     39.9    4.759   -9.900     1.36    0.000    0.000       11        9     2085  Maize_short_Chisinau_22May_NonOptimum_26_NCC.PRM
 Tot(106)       22        5     2086     49.0    622.5   1407.6   428.00      0.0     49.0      0.0      0.0      0.0     78.4       21    172.4    138.0       72     0.000     0.000     0.000     0.000       89        0       42       25        4       29       20     7.213       31     25.8    1.861   -9.900     0.75    0.000    0.000       11        9     2086  Maize_short_Chisinau_22May_NonOptimum_26_NCC.PRM
 Tot(107)       22        5     2087    156.9    559.9   1277.9   428.00      0.0    153.1      3.8      6.3      0.0    130.9       51    230.0    180.0       76     0.000     0.000     0.000     0.000      107        0       42       25       10       17       19    11.822       50     40.1    4.745   -9.900     1.31    0.000    0.000       11        9     2087  Maize_short_Chisinau_22May_NonOptimum_26_NCC.PRM
 Tot(108)       22        5     2088    191.1    518.4   1266.0   427.00      0.0    184.4      6.7     16.7      0.0    141.8       68    243.9    190.5       80     0.000     0.000     0.000     0.000      107        0       42       25       10       11       18    12.763       55     39.9    5.094   -9.900     1.32    0.000    0.000       11        9     2088  Maize_short_Chisinau_22May_NonOptimum_26_NCC.PRM
 Tot(109)       22        5     2089    113.9    555.5   1271.6   427.00      0.0    113.7      0.2      3.1      0.0     86.6       33    215.6    169.8       77     0.000     0.000     0.000     0.000      107        0       42       25        8       17       18    10.403       44     40.1    4.169   -9.900     1.38    0.000    0.000       11        9     2089  Maize_short_Chisinau_22May_NonOptimum_26_NCC.PRM
 Tot(110)       22        5     2090    146.8    538.0   1219.7   426.00      0.0    137.7      9.1     14.0      0.0    100.9       42    239.2    186.8       84     0.000     0.000     0.000     0.000      107        0       42       25        9        9       17    12.261       53     39.8    4.880   -9.900     1.43    0.000    0.000       11        9     2090  Maize_short_Chisinau_22May_NonOptimum_26_NCC.PRM
 Tot(111)       22        5     2091    131.9    573.8   1319.7   425.00      0.0    130.3      1.6      0.0      0.0    120.3       39    197.4    156.9       79     0.000     0.000     0.000     0.000      107        0       42       25       12       27       13     9.354       42     40.5    3.789   -9.900     1.19    0.000    0.000       11        9     2091  Maize_short_Chisinau_22May_NonOptimum_26_NCC.PRM
 Tot(112)       22        5     2092    198.4    498.2   1250.6   425.00      0.0    181.0     17.4     38.4      0.0    125.0       58    232.5    181.3       82     0.000     0.000     0.000     0.000      107        0       42       25        8       12       15    12.959       55     40.1    5.203   -9.900     1.46    0.000    0.000       11        9     2092  Maize_short_Chisinau_22May_NonOptimum_26_NCC.PRM
 Tot(113)       22        5     2093    126.6    527.5   1222.2   424.00      0.0    125.9      0.7      0.0      0.0    102.6       42    237.1    185.5       84     0.000     0.000     0.000     0.000      107        0       42       25       12       10       14    12.957       57     40.1    5.198   -9.900     1.53    0.000    0.000       11        9     2093  Maize_short_Chisinau_22May_NonOptimum_26_NCC.PRM
 Tot(114)       22        5     2094    128.0    627.8   1472.5   424.00      0.0    125.3      2.7      6.1      0.0    107.7       29    208.4    168.5       80     0.000     0.000     0.000     0.000      107        0       42       25        4       35       13     9.775       41     40.6    3.968   -9.900     1.26    0.000    0.000       11        9     2094  Maize_short_Chisinau_22May_NonOptimum_26_NCC.PRM
 Tot(115)       22        5     2095    107.6    601.0   1375.8   423.00      0.0    107.6      0.0      0.0      0.0     91.4       29    232.3    184.5       81     0.000     0.000     0.000     0.000      107        0       42       25        6       22       17    11.332       49     40.2    4.558   -9.900     1.41    0.000    0.000       11        9     2095  Maize_short_Chisinau_22May_NonOptimum_26_NCC.PRM
 Tot(116)       22        5     2096    243.9    442.6   1110.1   423.00      0.0    230.2     13.7     37.6      0.0    111.7       69    265.3    205.1       98     0.000     0.000     0.000     0.000      107        0       42       25       21        3        2    15.954       74     40.1    6.405   -9.900     1.70    0.000    0.000       11        9     2096  Maize_short_Chisinau_22May_NonOptimum_26_NCC.PRM
 Tot(117)       22        5     2097     83.7    542.3   1286.1   422.00      0.0     83.7      0.0      0.0      0.0     97.9       35    199.0    157.7       80     0.000     0.000     0.000     0.000      101        0       42       25       12       22       18    10.464       44     38.1    3.984   -9.900     1.34    0.000    0.000       11        9     2097  Maize_short_Chisinau_22May_NonOptimum_26_NCC.PRM
 Tot(118)       22        5     2098    184.6    521.2   1236.9   422.00      0.0    172.1     12.5     14.1      0.0    136.6       62    237.2    184.8       81     0.000     0.000     0.000     0.000      107        0       42       25       11        8       14    12.438       56     39.7    4.940   -9.900     1.32    0.000    0.000       11        9     2098  Maize_short_Chisinau_22May_NonOptimum_26_NCC.PRM
 Tot(119)       22        5     2099    166.8    540.3   1375.9   421.00      0.0    164.1      2.7      5.1      0.0    121.1       52    252.6    197.3       83     0.000     0.000     0.000     0.000      107        0       42       25        6       14       16    12.906       54     40.2    5.193   -9.900     1.39    0.000    0.000       11        9     2099  Maize_short_Chisinau_22May_NonOptimum_26_NCC.PRM
