AquaCrop 7.0 (August 2022) - Output created on (date) : 23-11-2022   at (time) : 12:10:11

    RunNr     Day1   Month1    Year1     Rain      ETo       GD     CO2      Irri   Infilt   Runoff    Drain   Upflow        E     E/Ex       Tr      TrW   Tr/Trx    SaltIn   SaltOut    SaltUp  SaltProf     Cycle   SaltStr  FertStr  WeedStr  TempStr   ExpStr   StoStr  BioMass  Brelative   HI    Y(dry)  Y(fresh)    WPet      Bin     Bout     DayN   MonthN    YearN
                                           mm       mm  degC.day    ppm        mm       mm       mm       mm       mm       mm        %       mm       mm        %    ton/ha    ton/ha    ton/ha    ton/ha      days       %        %        %        %        %        %    ton/ha        %       %    ton/ha   ton/ha    kg/m3   ton/ha   ton/ha
   Tot(1)       22        5     1981    240.8    460.2   1219.9   340.11      0.0    210.3     30.5     45.0      0.0    104.1       48    244.4    188.1      100     0.000     0.000     0.000     0.000      107        0       42       25       13        3        0    15.113       74     40.1    6.058   -9.900     1.74    0.000    0.000       11        9     1981  Maize_Short_Soroca_22May_NonOptimum_26_MPI.PRM
   Tot(2)       22        5     1982    274.6    445.7   1204.3   341.22      0.0    238.9     35.7     42.9      0.0    128.1       64    250.3    193.3      100     0.000     0.000     0.000     0.000      107        0       42       25       11        2        0    16.014       74     40.0    6.413   -9.900     1.69    0.000    0.000       11        9     1982  Maize_Short_Soroca_22May_NonOptimum_26_MPI.PRM
   Tot(3)       22        5     1983    219.2    435.3   1214.1   342.84      0.0    214.3      4.9      0.1      0.0    106.4       56    242.1    186.9      100     0.000     0.000     0.000     0.000      107        0       42       25       11        1        0    15.803       75     40.0    6.322   -9.900     1.81    0.000    0.000       11        9     1983  Maize_Short_Soroca_22May_NonOptimum_26_MPI.PRM
   Tot(4)       22        5     1984    324.1    420.3   1075.3   344.40      0.0    305.9     18.2     19.5      0.0    155.4       90    234.9    182.6      100     0.000     0.000     0.000     0.000      107        0       42       25       18        0        0    15.245       75     40.0    6.098   -9.900     1.56    0.000    0.000       11        9     1984  Maize_Short_Soroca_22May_NonOptimum_26_MPI.PRM
   Tot(5)       22        5     1985    381.4    448.7   1131.4   345.87      0.0    343.1     38.3     63.4      0.0    143.5       80    261.4    202.1      100     0.000     0.000     0.000     0.000      107        0       42       25       17        1        0    15.276       75     40.1    6.128   -9.900     1.51    0.000    0.000       11        9     1985  Maize_Short_Soroca_22May_NonOptimum_26_MPI.PRM
   Tot(6)       22        5     1986    162.2    512.9   1240.3   347.19      0.0    161.8      0.4      0.0      0.0    109.8       46    253.4    196.7       94     0.000     0.000     0.000     0.000      107        0       42       25       13        7        5    14.037       69     40.1    5.631   -9.900     1.55    0.000    0.000       11        9     1986  Maize_Short_Soroca_22May_NonOptimum_26_MPI.PRM
   Tot(7)       22        5     1987    256.6    456.5   1133.8   348.98      0.0    246.2     10.4     15.1      0.0    136.1       68    245.6    191.7      100     0.000     0.000     0.000     0.000      107        0       42       25       17       12        0    14.615       73     40.5    5.921   -9.900     1.55    0.000    0.000       11        9     1987  Maize_Short_Soroca_22May_NonOptimum_26_MPI.PRM
   Tot(8)       22        5     1988    324.3    426.4   1235.2   351.45      0.0    304.9     19.4     38.9      0.0    140.6       84    261.7    203.6      100     0.000     0.000     0.000     0.000      107        0       42       25       12        1        0    15.942       76     40.1    6.389   -9.900     1.59    0.000    0.000       11        9     1988  Maize_Short_Soroca_22May_NonOptimum_26_MPI.PRM
   Tot(9)       22        5     1989    398.6    434.0   1151.2   352.89      0.0    334.0     64.6     24.5      0.0    114.7       60    245.6    191.2      100     0.000     0.000     0.000     0.000      107        0       42       25       14        4        0    15.504       74     40.1    6.224   -9.900     1.73    0.000    0.000       11        9     1989  Maize_Short_Soroca_22May_NonOptimum_26_MPI.PRM
  Tot(10)       22        5     1990    193.6    463.7   1109.4   354.16      0.0    190.8      2.8      6.4      0.0    145.0       75    243.2    188.9       92     0.000     0.000     0.000     0.000      107        0       42       25       17        6        8    14.208       68     40.2    5.707   -9.900     1.47    0.000    0.000       11        9     1990  Maize_Short_Soroca_22May_NonOptimum_26_MPI.PRM
  Tot(11)       22        5     1991    419.0    410.7   1159.5   355.48      0.0    366.8     52.2     52.7      0.0    138.5       81    241.6    186.6      100     0.000     0.000     0.000     0.000      107        0       42       25       14        1        0    16.131       76     40.0    6.457   -9.900     1.70    0.000    0.000       11        9     1991  Maize_Short_Soroca_22May_NonOptimum_26_MPI.PRM
  Tot(12)       22        5     1992    208.9    511.5   1268.1   356.27      0.0    203.2      5.7     14.5      0.0    147.2       71    241.9    189.8       80     0.000     0.000     0.000     0.000      107        0       42       25       11       13       14    12.129       55     39.8    4.830   -9.900     1.24    0.000    0.000       11        9     1992  Maize_Short_Soroca_22May_NonOptimum_26_MPI.PRM
  Tot(13)       22        5     1993    240.0    450.5   1102.8   356.95      0.0    233.7      6.3      5.7      0.0    119.2       61    243.7    187.5      100     0.000     0.000     0.000     0.000      107        0       42       25       17        2        0    14.725       75     40.1    5.899   -9.900     1.63    0.000    0.000       11        9     1993  Maize_Short_Soroca_22May_NonOptimum_26_MPI.PRM
  Tot(14)       22        5     1994    254.5    502.2   1248.0   358.63      0.0    222.8     31.7     20.8      0.0    124.3       56    248.7    195.0       87     0.000     0.000     0.000     0.000      107        0       42       25       12       13        8    13.509       60     40.5    5.468   -9.900     1.47    0.000    0.000       11        9     1994  Maize_Short_Soroca_22May_NonOptimum_26_MPI.PRM
  Tot(15)       22        5     1995    376.0    484.7   1320.2   360.62      0.0    320.5     55.5     21.5      0.0    109.4       50    278.5    215.9      100     0.000     0.000     0.000     0.000      107        0       42       25        6        4        0    16.384       73     40.1    6.563   -9.900     1.69    0.000    0.000       11        9     1995  Maize_Short_Soroca_22May_NonOptimum_26_MPI.PRM
  Tot(16)       22        5     1996    300.9    473.4   1194.7   362.37      0.0    280.7     20.2     14.7      0.0     98.5       42    244.4    191.0      100     0.000     0.000     0.000     0.000      107        0       42       25       13        3        0    15.280       73     40.0    6.112   -9.900     1.78    0.000    0.000       11        9     1996  Maize_Short_Soroca_22May_NonOptimum_26_MPI.PRM
  Tot(17)       22        5     1997    330.4    417.9   1118.9   363.47      0.0    311.2     19.2     16.2      0.0    121.6       65    228.4    176.9      100     0.000     0.000     0.000     0.000      107        0       42       25       15        1        0    15.967       75     40.0    6.387   -9.900     1.82    0.000    0.000       11        9     1997  Maize_Short_Soroca_22May_NonOptimum_26_MPI.PRM
  Tot(18)       22        5     1998    279.4    435.7   1188.1   366.50      0.0    261.5     17.9     17.9      0.0    117.5       66    246.1    188.8      100     0.000     0.000     0.000     0.000      107        0       42       25       15        1        0    14.875       75     40.0    5.951   -9.900     1.64    0.000    0.000       11        9     1998  Maize_Short_Soroca_22May_NonOptimum_26_MPI.PRM
  Tot(19)       22        5     1999    167.8    514.8   1406.8   368.14      0.0    167.8      0.0      0.0      0.0    106.3       41    257.4    202.8       94     0.000     0.000     0.000     0.000      107        0       42       25        3       16        4    15.161       66     40.5    6.147   -9.900     1.69    0.000    0.000       11        9     1999  Maize_Short_Soroca_22May_NonOptimum_26_MPI.PRM
  Tot(20)       22        5     2000    266.5    494.1   1237.4   369.41      0.0    256.4     10.1     11.7      0.0    112.2       48    270.3    209.2      100     0.000     0.000     0.000     0.000      107        0       42       25       12        2        0    16.034       74     40.0    6.415   -9.900     1.68    0.000    0.000       11        9     2000  Maize_Short_Soroca_22May_NonOptimum_26_MPI.PRM
  Tot(21)       22        5     2001    315.8    471.8   1256.9   371.07      0.0    291.7     24.1     19.9      0.0    135.7       74    285.6    222.3       96     0.000     0.000     0.000     0.000      107        0       42       25       13        1        4    15.874       71     40.0    6.346   -9.900     1.51    0.000    0.000       11        9     2001  Maize_Short_Soroca_22May_NonOptimum_26_MPI.PRM
  Tot(22)       22        5     2002    383.6    500.9   1374.8   373.16      0.0    349.5     34.1      2.8      0.0    144.8       64    295.6    230.9      100     0.000     0.000     0.000     0.000      107        0       42       25        7       10        0    16.908       73     40.1    6.781   -9.900     1.54    0.000    0.000       11        9     2002  Maize_Short_Soroca_22May_NonOptimum_26_MPI.PRM
  Tot(23)       22        5     2003    341.0    524.1   1271.7   375.80      0.0    288.4     52.6     47.8      0.0    102.3       39    266.2    205.7      100     0.000     0.000     0.000     0.000      107        0       42       25       11        4        0    15.585       73     40.0    6.236   -9.900     1.69    0.000    0.000       11        9     2003  Maize_Short_Soroca_22May_NonOptimum_26_MPI.PRM
  Tot(24)       22        5     2004    246.8    480.3   1170.9   377.49      0.0    225.9     20.9      0.0      0.0     76.1       31    243.8    191.3      100     0.000     0.000     0.000     0.000      107        0       42       25       12        7        0    15.623       72     40.1    6.267   -9.900     1.96    0.000    0.000       11        9     2004  Maize_Short_Soroca_22May_NonOptimum_26_MPI.PRM
  Tot(25)       22        5     2005    191.9    472.0   1278.0   379.80      0.0    190.3      1.6      0.5      0.0    108.7       51    269.4    207.6       99     0.000     0.000     0.000     0.000      107        0       42       25        8        5        1    16.828       74     40.2    6.767   -9.900     1.79    0.000    0.000       11        9     2005  Maize_Short_Soroca_22May_NonOptimum_26_MPI.PRM
  Tot(26)       22        5     2006    297.5    485.6   1226.9   381.90      0.0    283.3     14.2     20.3      0.0    130.8       64    286.8    223.8       99     0.000     0.000     0.000     0.000      107        0       42       25       14       11        0    16.326       73     40.5    6.614   -9.900     1.58    0.000    0.000       11        9     2006  Maize_Short_Soroca_22May_NonOptimum_26_MPI.PRM
  Tot(27)       22        5     2007    171.9    576.2   1439.4   383.77      0.0    171.9      0.0      0.0      0.0    111.7       35    248.0    196.4       90     0.000     0.000     0.000     0.000      107        0       42       25        5       24        7    13.318       59     40.8    5.428   -9.900     1.51    0.000    0.000       11        9     2007  Maize_Short_Soroca_22May_NonOptimum_26_MPI.PRM
  Tot(28)       22        5     2008    348.1    533.3   1326.6   385.59      0.0    288.2     59.9      0.7      0.0    123.6       54    317.8    247.0      100     0.000     0.000     0.000     0.000      107        0       42       25        6        6        0    17.072       73     40.0    6.829   -9.900     1.55    0.000    0.000       11        9     2008  Maize_Short_Soroca_22May_NonOptimum_26_MPI.PRM
  Tot(29)       22        5     2009    203.0    548.8   1334.5   387.37      0.0    201.4      1.6      0.3      0.0    154.6       62    265.5    208.1       86     0.000     0.000     0.000     0.000      107        0       42       25        7        8       13    13.864       60     40.0    5.545   -9.900     1.32    0.000    0.000       11        9     2009  Maize_Short_Soroca_22May_NonOptimum_26_MPI.PRM
  Tot(30)       22        5     2010    347.1    480.7   1367.9   389.85      0.0    318.5     28.6     55.2      0.0    140.3       70    283.4    218.5       98     0.000     0.000     0.000     0.000      107        0       42       25        9        1        1    16.346       74     40.0    6.546   -9.900     1.55    0.000    0.000       11        9     2010  Maize_Short_Soroca_22May_NonOptimum_26_MPI.PRM
  Tot(31)       22        5     2011    182.7    539.3   1341.3   391.63      0.0    180.8      1.9      0.0      0.0    124.7       48    270.0    210.2       91     0.000     0.000     0.000     0.000      107        0       42       25        6        7        8    15.031       65     39.9    6.003   -9.900     1.52    0.000    0.000       11        9     2011  Maize_Short_Soroca_22May_NonOptimum_26_MPI.PRM
  Tot(32)       22        5     2012    126.3    606.4   1414.1   393.82      0.0    126.0      0.3      0.0      0.0    116.6       35    223.3    177.9       79     0.000     0.000     0.000     0.000      107        0       42       25        6       25       16    11.053       48     40.4    4.462   -9.900     1.31    0.000    0.000       11        9     2012  Maize_Short_Soroca_22May_NonOptimum_26_MPI.PRM
  Tot(33)       22        5     2013    245.3    495.7   1303.4   396.48      0.0    225.7     19.6     20.7      0.0    155.8       71    237.6    185.6       86     0.000     0.000     0.000     0.000      107        0       42       25        7        9        8    13.725       60     40.2    5.519   -9.900     1.40    0.000    0.000       11        9     2013  Maize_Short_Soroca_22May_NonOptimum_26_MPI.PRM
  Tot(34)       22        5     2014    253.7    516.6   1359.2   398.55      0.0    231.9     21.8     10.0      0.0    103.5       48    307.9    237.5       99     0.000     0.000     0.000     0.000      107        0       42       25        7        2        1    17.115       74     40.0    6.846   -9.900     1.66    0.000    0.000       11        9     2014  Maize_Short_Soroca_22May_NonOptimum_26_MPI.PRM
  Tot(35)       22        5     2015     64.6    613.4   1397.9   401.00      0.0     64.6      0.0      0.0      0.0     90.2       24    179.8    145.4       77     0.000     0.000     0.000     0.000       97        0       42       25        5       28       19     8.464       37     34.0    2.879   -9.900     1.11    0.000    0.000       11        9     2015  Maize_Short_Soroca_22May_NonOptimum_26_MPI.PRM
  Tot(36)       22        5     2016    223.5    541.1   1411.6   403.00      0.0    221.3      2.2      0.5      0.0    172.0       75    271.0    211.5       84     0.000     0.000     0.000     0.000      107        0       42       25        5       16       13    13.971       59     40.4    5.644   -9.900     1.27    0.000    0.000       11        9     2016  Maize_Short_Soroca_22May_NonOptimum_26_MPI.PRM
  Tot(37)       22        5     2017    190.2    557.9   1350.9   405.00      0.0    188.7      1.5      0.3      0.0    148.1       57    258.0    202.0       86     0.000     0.000     0.000     0.000      107        0       42       25        6       12       13    13.595       59     40.1    5.452   -9.900     1.34    0.000    0.000       11        9     2017  Maize_Short_Soroca_22May_NonOptimum_26_MPI.PRM
  Tot(38)       22        5     2018    247.0    517.0   1451.6   408.00      0.0    234.6     12.4      7.5      0.0    111.3       46    293.2    226.7       99     0.000     0.000     0.000     0.000      107        0       42       25        4        3        1    17.303       73     40.0    6.920   -9.900     1.71    0.000    0.000       11        9     2018  Maize_Short_Soroca_22May_NonOptimum_26_MPI.PRM
  Tot(39)       22        5     2019    224.9    551.2   1441.3   410.00      0.0    207.2     17.7     24.8      0.0    162.1       65    244.6    191.7       82     0.000     0.000     0.000     0.000      107        0       42       25        3        9       16    13.361       57     39.6    5.296   -9.900     1.30    0.000    0.000       11        9     2019  Maize_Short_Soroca_22May_NonOptimum_26_MPI.PRM
  Tot(40)       22        5     2020    241.1    426.6   1073.6   412.00      0.0    236.6      4.5      0.0      0.0    120.9       66    225.9    174.3      100     0.000     0.000     0.000     0.000      107        0       42       25       19        4        0    14.488       75     40.2    5.829   -9.900     1.68    0.000    0.000       11        9     2020  Maize_Short_Soroca_22May_NonOptimum_26_MPI.PRM
  Tot(41)       22        5     2021    216.4    460.1   1109.6   414.00      0.0    215.8      0.6      0.0      0.0    102.6       51    259.9    201.3      100     0.000     0.000     0.000     0.000      107        0       42       25       17        5        0    16.422       74     40.2    6.596   -9.900     1.82    0.000    0.000       11        9     2021  Maize_Short_Soroca_22May_NonOptimum_26_MPI.PRM
  Tot(42)       22        5     2022    358.7    410.0   1049.4   417.00      0.0    296.7     62.0     17.2      0.0    127.8       84    245.1    189.2      100     0.000     0.000     0.000     0.000      107        0       42       25       22        7        0    15.149       75     40.4    6.124   -9.900     1.64    0.000    0.000       11        9     2022  Maize_Short_Soroca_22May_NonOptimum_26_MPI.PRM
  Tot(43)       22        5     2023    231.5    540.7   1274.8   419.00      0.0    223.8      7.7      4.4      0.0    128.7       45    247.3    195.6       99     0.000     0.000     0.000     0.000      107        0       42       25       13       17        0    14.447       70     40.4    5.838   -9.900     1.55    0.000    0.000       11        9     2023  Maize_Short_Soroca_22May_NonOptimum_26_MPI.PRM
  Tot(44)       22        5     2024    203.2    466.2   1119.5   421.00      0.0    191.7     11.5      0.0      0.0    106.7       49    242.0    188.0      100     0.000     0.000     0.000     0.000      107        0       42       25       17        8        0    15.418       73     40.4    6.229   -9.900     1.79    0.000    0.000       11        9     2024  Maize_Short_Soroca_22May_NonOptimum_26_MPI.PRM
  Tot(45)       22        5     2025    193.8    473.6   1178.0   423.00      0.0    193.5      0.3      0.0      0.0    120.4       54    247.3    193.4       98     0.000     0.000     0.000     0.000      107        0       42       25       12        4        1    15.812       73     40.0    6.330   -9.900     1.72    0.000    0.000       11        9     2025  Maize_Short_Soroca_22May_NonOptimum_26_MPI.PRM
  Tot(46)       22        5     2026    138.1    514.5   1127.3   424.00      0.0    138.1      0.0      0.0      0.0    112.8       43    222.9    174.7       89     0.000     0.000     0.000     0.000      107        0       42       25       15       21        8    12.989       61     40.5    5.256   -9.900     1.57    0.000    0.000       11        9     2026  Maize_Short_Soroca_22May_NonOptimum_26_MPI.PRM
  Tot(47)       22        5     2027    352.1    377.7   1007.8   426.00      0.0    306.7     45.4     27.9      0.0    116.5       78    210.8    164.0      100     0.000     0.000     0.000     0.000      107        0       42       25       20        0        0    15.486       75     40.0    6.195   -9.900     1.89    0.000    0.000       11        9     2027  Maize_Short_Soroca_22May_NonOptimum_26_MPI.PRM
  Tot(48)       22        5     2028    212.0    424.8   1044.4   428.00      0.0    211.2      0.8      0.8      0.0    122.9       67    226.9    174.8      100     0.000     0.000     0.000     0.000      107        0       42       25       18        1        0    15.658       75     40.1    6.271   -9.900     1.79    0.000    0.000       11        9     2028  Maize_Short_Soroca_22May_NonOptimum_26_MPI.PRM
  Tot(49)       22        5     2029    227.2    418.6   1017.9   429.00      0.0    225.1      2.1      0.0      0.0    113.4       66    226.5    175.4      100     0.000     0.000     0.000     0.000      107        0       42       25       24        1        0    15.014       75     40.0    6.009   -9.900     1.77    0.000    0.000       11        9     2029  Maize_Short_Soroca_22May_NonOptimum_26_MPI.PRM
  Tot(50)       22        5     2030    259.4    489.0   1149.2   431.00      0.0    247.5     11.9     16.1      0.0    111.0       59    286.3    222.1      100     0.000     0.000     0.000     0.000      107        0       42       25       18        3        0    15.966       74     40.0    6.393   -9.900     1.61    0.000    0.000       11        9     2030  Maize_Short_Soroca_22May_NonOptimum_26_MPI.PRM
  Tot(51)       22        5     2031    287.8    446.5   1123.4   432.00      0.0    281.3      6.5      0.0      0.0    111.2       50    216.2    169.1      100     0.000     0.000     0.000     0.000      107        0       42       25       18        4        0    14.957       74     40.1    5.995   -9.900     1.83    0.000    0.000       11        9     2031  Maize_Short_Soroca_22May_NonOptimum_26_MPI.PRM
  Tot(52)       22        5     2032    191.3    460.9   1095.4   433.00      0.0    191.0      0.3      0.0      0.0    137.0       72    246.7    190.2       97     0.000     0.000     0.000     0.000      107        0       42       25       17        3        3    15.218       73     40.1    6.109   -9.900     1.59    0.000    0.000       11        9     2032  Maize_Short_Soroca_22May_NonOptimum_26_MPI.PRM
  Tot(53)       22        5     2033    182.9    459.1   1073.7   435.00      0.0    178.3      4.6      0.0      0.0     95.4       45    228.5    177.6      100     0.000     0.000     0.000     0.000      107        0       42       25       20        3        0    14.886       74     40.0    5.960   -9.900     1.84    0.000    0.000       11        9     2033  Maize_Short_Soroca_22May_NonOptimum_26_MPI.PRM
  Tot(54)       22        5     2034    235.0    485.2   1177.4   436.00      0.0    229.3      5.7      0.0      0.0    110.1       49    261.8    203.2      100     0.000     0.000     0.000     0.000      107        0       42       25       15        6        0    16.251       73     40.2    6.531   -9.900     1.76    0.000    0.000       11        9     2034  Maize_Short_Soroca_22May_NonOptimum_26_MPI.PRM
  Tot(55)       22        5     2035    180.9    482.4   1105.0   437.00      0.0    174.4      6.5      1.4      0.0    112.0       56    234.9    183.0       89     0.000     0.000     0.000     0.000      107        0       42       25       19        5        7    13.742       65     39.9    5.490   -9.900     1.58    0.000    0.000       11        9     2035  Maize_Short_Soroca_22May_NonOptimum_26_MPI.PRM
  Tot(56)       22        5     2036    210.6    454.0   1138.0   438.00      0.0    207.2      3.4      8.0      0.0    118.8       58    243.4    187.7      100     0.000     0.000     0.000     0.000      107        0       42       25       13        6        0    16.225       74     40.2    6.519   -9.900     1.80    0.000    0.000       11        9     2036  Maize_Short_Soroca_22May_NonOptimum_26_MPI.PRM
  Tot(57)       22        5     2037    287.3    414.2   1018.6   438.00      0.0    281.8      5.5      2.1      0.0    104.8       52    198.1    155.1      100     0.000     0.000     0.000     0.000      107        0       42       25       21        2        0    14.955       74     40.0    5.986   -9.900     1.98    0.000    0.000       11        9     2037  Maize_Short_Soroca_22May_NonOptimum_26_MPI.PRM
  Tot(58)       22        5     2038    178.6    427.9   1089.7   439.00      0.0    177.1      1.5      1.4      0.0     96.5       53    232.4    180.8      100     0.000     0.000     0.000     0.000      107        0       42       25       19        8        0    15.810       74     40.3    6.374   -9.900     1.94    0.000    0.000       11        9     2038  Maize_Short_Soroca_22May_NonOptimum_26_MPI.PRM
  Tot(59)       22        5     2039    184.2    515.2   1112.6   440.00      0.0    179.2      5.0      0.7      0.0    108.3       45    255.7    199.1       96     0.000     0.000     0.000     0.000      107        0       42       25       16       19        2    14.697       68     40.9    6.006   -9.900     1.65    0.000    0.000       11        9     2039  Maize_Short_Soroca_22May_NonOptimum_26_MPI.PRM
  Tot(60)       22        5     2040    223.0    475.7   1108.0   440.00      0.0    208.1     14.9     15.1      0.0    131.5       64    243.1    188.2       95     0.000     0.000     0.000     0.000      107        0       42       25       17        4        3    15.176       71     40.2    6.101   -9.900     1.63    0.000    0.000       11        9     2040  Maize_Short_Soroca_22May_NonOptimum_26_MPI.PRM
  Tot(61)       22        5     2041    129.6    571.7   1189.4   441.00      0.0    128.6      1.0      0.0      0.0    116.0       38    202.1    161.3       78     0.000     0.000     0.000     0.000      107        0       42       25       13       21       17    10.120       44     40.1    4.059   -9.900     1.28    0.000    0.000       11        9     2041  Maize_Short_Soroca_22May_NonOptimum_26_MPI.PRM
  Tot(62)       22        5     2042    258.3    444.8   1113.2   441.00      0.0    246.0     12.3      0.0      0.0    108.1       50    220.4    170.3      100     0.000     0.000     0.000     0.000      107        0       42       25       15        3        0    15.775       74     40.0    6.316   -9.900     1.92    0.000    0.000       11        9     2042  Maize_Short_Soroca_22May_NonOptimum_26_MPI.PRM
  Tot(63)       22        5     2043    205.4    429.9   1011.9   441.00      0.0    199.2      6.2      9.4      0.0    111.4       61    229.6    177.5      100     0.000     0.000     0.000     0.000      107        0       42       25       24        2        0    15.152       74     40.1    6.070   -9.900     1.78    0.000    0.000       11        9     2043  Maize_Short_Soroca_22May_NonOptimum_26_MPI.PRM
  Tot(64)       22        5     2044    339.8    395.1   1013.4   442.00      0.0    317.0     22.8     38.7      0.0    122.1       69    198.4    154.9      100     0.000     0.000     0.000     0.000      107        0       42       25       23        2        0    14.977       75     40.0    5.998   -9.900     1.87    0.000    0.000       11        9     2044  Maize_Short_Soroca_22May_NonOptimum_26_MPI.PRM
  Tot(65)       22        5     2045    297.7    418.7   1126.4   442.00      0.0    272.2     25.5     35.2      0.0    108.4       61    236.5    182.0      100     0.000     0.000     0.000     0.000      107        0       42       25       16        1        0    16.552       75     40.0    6.627   -9.900     1.92    0.000    0.000       11        9     2045  Maize_Short_Soroca_22May_NonOptimum_26_MPI.PRM
  Tot(66)       22        5     2046    310.1    409.2   1083.7   442.00      0.0    288.5     21.6      0.0      0.0    114.5       58    200.5    157.6      100     0.000     0.000     0.000     0.000      107        0       42       25       17        3        0    15.198       75     40.1    6.087   -9.900     1.93    0.000    0.000       11        9     2046  Maize_Short_Soroca_22May_NonOptimum_26_MPI.PRM
  Tot(67)       22        5     2047    222.4    437.4   1163.9   442.00      0.0    208.6     13.8     27.7      0.0     95.2       55    263.0    202.4      100     0.000     0.000     0.000     0.000      107        0       42       25       14        2        0    16.935       75     40.0    6.782   -9.900     1.89    0.000    0.000       11        9     2047  Maize_Short_Soroca_22May_NonOptimum_26_MPI.PRM
  Tot(68)       22        5     2048    376.0    422.8   1140.4   442.00      0.0    305.1     70.9     25.4      0.0    123.2       66    230.2    177.7      100     0.000     0.000     0.000     0.000      107        0       42       25       13        3        0    16.649       75     40.2    6.687   -9.900     1.89    0.000    0.000       11        9     2048  Maize_Short_Soroca_22May_NonOptimum_26_MPI.PRM
  Tot(69)       22        5     2049    170.0    475.4   1066.6   443.00      0.0    168.3      1.7      3.4      0.0    109.4       52    240.6    187.3       99     0.000     0.000     0.000     0.000      107        0       42       25       19        8        1    14.692       73     40.3    5.921   -9.900     1.69    0.000    0.000       11        9     2049  Maize_Short_Soroca_22May_NonOptimum_26_MPI.PRM
  Tot(70)       22        5     2050    269.2    442.1   1058.0   443.00      0.0    240.3     28.9     39.4      0.0    119.4       60    226.9    176.9      100     0.000     0.000     0.000     0.000      107        0       42       25       21        3        0    14.885       75     40.2    5.983   -9.900     1.73    0.000    0.000       11        9     2050  Maize_Short_Soroca_22May_NonOptimum_26_MPI.PRM
  Tot(71)       22        5     2051    210.0    451.7   1076.0   443.00      0.0    209.4      0.6      0.5      0.0    114.2       58    245.9    191.5      100     0.000     0.000     0.000     0.000      107        0       42       25       16        8        0    15.905       74     40.3    6.414   -9.900     1.78    0.000    0.000       11        9     2051  Maize_Short_Soroca_22May_NonOptimum_26_MPI.PRM
  Tot(72)       22        5     2052    223.8    457.9   1153.3   443.00      0.0    212.1     11.7      0.0      0.0     97.6       41    213.7    166.9      100     0.000     0.000     0.000     0.000      107        0       42       25       15       10        0    15.057       72     40.2    6.057   -9.900     1.95    0.000    0.000       11        9     2052  Maize_Short_Soroca_22May_NonOptimum_26_MPI.PRM
  Tot(73)       22        5     2053    156.7    447.2   1059.5   443.00      0.0    153.9      2.8      7.0      0.0     83.5       44    241.9    187.2      100     0.000     0.000     0.000     0.000      107        0       42       25       18        2        0    15.744       74     40.0    6.302   -9.900     1.94    0.000    0.000       11        9     2053  Maize_Short_Soroca_22May_NonOptimum_26_MPI.PRM
  Tot(74)       22        5     2054    165.9    483.1   1134.0   443.00      0.0    163.8      2.1      0.0      0.0    103.6       51    262.2    203.4       96     0.000     0.000     0.000     0.000      107        0       42       25       14        4        3    15.907       71     40.1    6.372   -9.900     1.74    0.000    0.000       11        9     2054  Maize_Short_Soroca_22May_NonOptimum_26_MPI.PRM
  Tot(75)       22        5     2055    136.8    495.2   1132.5   443.00      0.0    136.6      0.2      0.0      0.0    109.4       48    233.2    182.3       90     0.000     0.000     0.000     0.000      107        0       42       25       17       13       10    13.746       63     40.3    5.540   -9.900     1.62    0.000    0.000       11        9     2055  Maize_Short_Soroca_22May_NonOptimum_26_MPI.PRM
  Tot(76)       22        5     2056    160.5    493.0   1152.8   442.00      0.0    157.3      3.2     13.7      0.0    116.4       57    241.3    188.3       86     0.000     0.000     0.000     0.000      107        0       42       25       13       10       11    13.904       61     39.9    5.547   -9.900     1.55    0.000    0.000       11        9     2056  Maize_Short_Soroca_22May_NonOptimum_26_MPI.PRM
  Tot(77)       22        5     2057    270.0    468.9   1147.6   442.00      0.0    245.8     24.2     10.8      0.0    116.3       59    255.5    196.7       98     0.000     0.000     0.000     0.000      107        0       42       25       15        3        1    15.828       74     40.1    6.348   -9.900     1.71    0.000    0.000       11        9     2057  Maize_Short_Soroca_22May_NonOptimum_26_MPI.PRM
  Tot(78)       22        5     2058    283.6    502.7   1153.9   442.00      0.0    248.5     35.1      0.0      0.0    104.8       38    226.1    177.8      100     0.000     0.000     0.000     0.000      107        0       42       25       14        8        0    14.715       71     40.1    5.905   -9.900     1.78    0.000    0.000       11        9     2058  Maize_Short_Soroca_22May_NonOptimum_26_MPI.PRM
  Tot(79)       22        5     2059    274.9    448.4   1116.3   442.00      0.0    245.1     29.8      3.3      0.0     83.5       37    218.2    170.6      100     0.000     0.000     0.000     0.000      107        0       42       25       18       14        0    14.346       72     40.5    5.808   -9.900     1.92    0.000    0.000       11        9     2059  Maize_Short_Soroca_22May_NonOptimum_26_MPI.PRM
  Tot(80)       22        5     2060    158.2    483.1   1181.6   442.00      0.0    154.8      3.4      2.9      0.0    114.6       61    244.2    189.4       85     0.000     0.000     0.000     0.000      107        0       42       25       15       12        9    13.993       61     40.5    5.673   -9.900     1.58    0.000    0.000       11        9     2060  Maize_Short_Soroca_22May_NonOptimum_26_MPI.PRM
  Tot(81)       22        5     2061    125.9    538.1   1251.8   441.00      0.0    125.8      0.1      0.0      0.0     88.8       32    242.9    193.2       89     0.000     0.000     0.000     0.000      107        0       42       25        9       23        9    13.863       59     40.4    5.598   -9.900     1.69    0.000    0.000       11        9     2061  Maize_Short_Soroca_22May_NonOptimum_26_MPI.PRM
  Tot(82)       22        5     2062    180.7    401.7    961.6   441.00      0.0    180.4      0.3      0.0      0.0    119.1       71    202.4    157.4      100     0.000     0.000     0.000     0.000      107        0       42       25       23        4        0    14.600       75     40.1    5.859   -9.900     1.82    0.000    0.000       11        9     2062  Maize_Short_Soroca_22May_NonOptimum_26_MPI.PRM
  Tot(83)       22        5     2063    234.4    493.8   1197.6   441.00      0.0    215.5     18.9      0.0      0.0    122.4       52    242.3    189.2       94     0.000     0.000     0.000     0.000      107        0       42       25       13       17        3    14.752       66     40.6    5.987   -9.900     1.64    0.000    0.000       11        9     2063  Maize_Short_Soroca_22May_NonOptimum_26_MPI.PRM
  Tot(84)       22        5     2064    258.6    458.7   1147.2   440.00      0.0    226.2     32.4      0.0      0.0     93.1       43    242.8    188.5      100     0.000     0.000     0.000     0.000      107        0       42       25       14        4        0    16.854       73     40.0    6.742   -9.900     2.01    0.000    0.000       11        9     2064  Maize_Short_Soroca_22May_NonOptimum_26_MPI.PRM
  Tot(85)       22        5     2065    204.4    378.7   1042.1   440.00      0.0    199.5      4.9      5.1      0.0    101.4       60    198.6    153.6      100     0.000     0.000     0.000     0.000      107        0       42       25       22        0        0    15.727       75     40.0    6.291   -9.900     2.10    0.000    0.000       11        9     2065  Maize_Short_Soroca_22May_NonOptimum_26_MPI.PRM
  Tot(86)       22        5     2066    244.8    444.5   1065.1   440.00      0.0    236.6      8.2      0.0      0.0    118.2       56    218.7    171.8      100     0.000     0.000     0.000     0.000      107        0       42       25       17        3        0    15.159       74     40.0    6.068   -9.900     1.80    0.000    0.000       11        9     2066  Maize_Short_Soroca_22May_NonOptimum_26_MPI.PRM
  Tot(87)       22        5     2067    208.2    382.7    888.6   439.00      0.0    205.2      3.0      0.0      0.0     93.6       54    179.3    138.5      100     0.000     0.000     0.000     0.000      107        0       42       25       28        2        0    13.989       75     40.1    5.605   -9.900     2.05    0.000    0.000       11        9     2067  Maize_Short_Soroca_22May_NonOptimum_26_MPI.PRM
  Tot(88)       22        5     2068    255.5    391.7    970.2   439.00      0.0    231.5     24.0     40.8      0.0    113.4       75    203.8    157.9      100     0.000     0.000     0.000     0.000      107        0       42       25       28        3        0    13.407       75     40.1    5.382   -9.900     1.70    0.000    0.000       11        9     2068  Maize_Short_Soroca_22May_NonOptimum_26_MPI.PRM
  Tot(89)       22        5     2069    342.3    473.0   1240.7   438.00      0.0    331.7     10.6      0.0      0.0    130.4       56    241.3    186.2      100     0.000     0.000     0.000     0.000      107        0       42       25        9        3        0    16.439       74     40.0    6.578   -9.900     1.77    0.000    0.000       11        9     2069  Maize_Short_Soroca_22May_NonOptimum_26_MPI.PRM
  Tot(90)       22        5     2070    247.5    459.7   1124.4   437.00      0.0    237.3     10.2      5.9      0.0    110.8       50    231.8    183.0      100     0.000     0.000     0.000     0.000      107        0       42       25       16        9        0    14.885       73     40.4    6.007   -9.900     1.75    0.000    0.000       11        9     2070  Maize_Short_Soroca_22May_NonOptimum_26_MPI.PRM
  Tot(91)       22        5     2071    306.7    475.5   1184.2   437.00      0.0    287.9     18.8      0.0      0.0    136.2       62    250.6    193.1      100     0.000     0.000     0.000     0.000      107        0       42       25       11        3        0    16.376       74     40.1    6.569   -9.900     1.70    0.000    0.000       11        9     2071  Maize_Short_Soroca_22May_NonOptimum_26_MPI.PRM
  Tot(92)       22        5     2072    173.8    544.2   1294.8   436.00      0.0    169.2      4.6      0.5      0.0    138.3       54    220.4    174.1       80     0.000     0.000     0.000     0.000      107        0       42       25        6       16       13    11.787       51     40.3    4.751   -9.900     1.32    0.000    0.000       11        9     2072  Maize_Short_Soroca_22May_NonOptimum_26_MPI.PRM
  Tot(93)       22        5     2073    121.5    547.4   1188.8   436.00      0.0    121.4      0.1      0.0      0.0    123.6       44    198.6    158.1       79     0.000     0.000     0.000     0.000      107        0       42       25       15       24       16     9.956       45     40.3    4.011   -9.900     1.24    0.000    0.000       11        9     2073  Maize_Short_Soroca_22May_NonOptimum_26_MPI.PRM
  Tot(94)       22        5     2074    243.8    486.4   1170.0   435.00      0.0    236.8      7.0      0.0      0.0    129.3       52    224.8    175.8       98     0.000     0.000     0.000     0.000      107        0       42       25       18       19        1    13.708       70     40.9    5.610   -9.900     1.58    0.000    0.000       11        9     2074  Maize_Short_Soroca_22May_NonOptimum_26_MPI.PRM
  Tot(95)       22        5     2075    350.0    461.9   1143.2   435.00      0.0    299.8     50.2      4.9      0.0    123.9       59    244.2    188.3      100     0.000     0.000     0.000     0.000      107        0       42       25       15        2        0    15.710       75     40.0    6.286   -9.900     1.71    0.000    0.000       11        9     2075  Maize_Short_Soroca_22May_NonOptimum_26_MPI.PRM
  Tot(96)       22        5     2076    183.2    462.0   1133.8   434.00      0.0    182.0      1.2      1.4      0.0    113.2       53    243.2    190.3      100     0.000     0.000     0.000     0.000      107        0       42       25       16        4        0    15.731       74     40.2    6.318   -9.900     1.77    0.000    0.000       11        9     2076  Maize_Short_Soroca_22May_NonOptimum_26_MPI.PRM
  Tot(97)       22        5     2077    197.9    528.1   1178.4   433.00      0.0    192.8      5.1      5.2      0.0    133.7       55    259.4    201.7       92     0.000     0.000     0.000     0.000      107        0       42       25       13        8        5    14.847       67     40.2    5.964   -9.900     1.52    0.000    0.000       11        9     2077  Maize_Short_Soroca_22May_NonOptimum_26_MPI.PRM
  Tot(98)       22        5     2078    207.6    449.6   1123.6   433.00      0.0    201.9      5.7      0.0      0.0    112.7       58    251.3    194.1      100     0.000     0.000     0.000     0.000      107        0       42       25       17       10        0    16.230       74     40.5    6.571   -9.900     1.81    0.000    0.000       11        9     2078  Maize_Short_Soroca_22May_NonOptimum_26_MPI.PRM
  Tot(99)       22        5     2079    328.3    397.6   1014.4   432.00      0.0    293.9     34.4     42.1      0.0    128.2       79    220.1    171.4      100     0.000     0.000     0.000     0.000      107        0       42       25       19        0        0    15.625       75     40.0    6.254   -9.900     1.80    0.000    0.000       11        9     2079  Maize_Short_Soroca_22May_NonOptimum_26_MPI.PRM
 Tot(100)       22        5     2080    201.9    493.2   1163.5   432.00      0.0    187.0     14.9     16.7      0.0    115.2       52    224.2    174.5       85     0.000     0.000     0.000     0.000      107        0       42       25       14       11       11    13.382       59     39.9    5.345   -9.900     1.57    0.000    0.000       11        9     2080  Maize_Short_Soroca_22May_NonOptimum_26_MPI.PRM
 Tot(101)       22        5     2081    178.4    522.4   1244.5   431.00      0.0    172.2      6.2     14.0      0.0    130.1       53    227.7    178.3       83     0.000     0.000     0.000     0.000      107        0       42       25       11       21       13    12.538       56     40.5    5.074   -9.900     1.42    0.000    0.000       11        9     2081  Maize_Short_Soroca_22May_NonOptimum_26_MPI.PRM
 Tot(102)       22        5     2082    180.7    449.4   1100.9   431.00      0.0    178.6      2.1      1.4      0.0    110.3       56    245.8    191.0       98     0.000     0.000     0.000     0.000      107        0       42       25       15        4        1    16.082       73     40.2    6.462   -9.900     1.81    0.000    0.000       11        9     2082  Maize_Short_Soroca_22May_NonOptimum_26_MPI.PRM
 Tot(103)       22        5     2083    209.7    509.2   1147.9   430.00      0.0    208.5      1.2      1.0      0.0    112.0       51    277.3    215.9       98     0.000     0.000     0.000     0.000      107        0       42       25       14        4        2    15.608       72     40.2    6.274   -9.900     1.61    0.000    0.000       11        9     2083  Maize_Short_Soroca_22May_NonOptimum_26_MPI.PRM
 Tot(104)       22        5     2084    317.7    420.0   1060.7   429.00      0.0    299.1     18.6     23.8      0.0    125.9       70    231.5    178.9      100     0.000     0.000     0.000     0.000      107        0       42       25       18        2        0    15.836       75     40.0    6.341   -9.900     1.77    0.000    0.000       11        9     2084  Maize_Short_Soroca_22May_NonOptimum_26_MPI.PRM
 Tot(105)       22        5     2085    202.0    477.9   1084.2   429.00      0.0    199.6      2.4      0.0      0.0     88.0       37    228.3    177.1      100     0.000     0.000     0.000     0.000      107        0       42       25       18        6        0    14.787       73     40.2    5.940   -9.900     1.88    0.000    0.000       11        9     2085  Maize_Short_Soroca_22May_NonOptimum_26_MPI.PRM
 Tot(106)       22        5     2086    172.2    483.9   1172.4   428.00      0.0    171.5      0.7      0.0      0.0    112.4       58    254.5    198.3       91     0.000     0.000     0.000     0.000      107        0       42       25       12        6        6    14.612       67     40.1    5.860   -9.900     1.60    0.000    0.000       11        9     2086  Maize_Short_Soroca_22May_NonOptimum_26_MPI.PRM
 Tot(107)       22        5     2087    260.5    440.4   1075.2   428.00      0.0    256.8      3.7      0.8      0.0    130.1       61    209.8    163.7      100     0.000     0.000     0.000     0.000      107        0       42       25       21        8        0    14.546       74     40.3    5.860   -9.900     1.72    0.000    0.000       11        9     2087  Maize_Short_Soroca_22May_NonOptimum_26_MPI.PRM
 Tot(108)       22        5     2088    164.2    493.6   1257.9   427.00      0.0    157.4      6.8      7.3      0.0    110.5       50    250.7    194.4       92     0.000     0.000     0.000     0.000      107        0       42       25       10        4        7    15.348       68     40.0    6.135   -9.900     1.70    0.000    0.000       11        9     2088  Maize_Short_Soroca_22May_NonOptimum_26_MPI.PRM
 Tot(109)       22        5     2089    240.8    435.0   1064.4   427.00      0.0    239.4      1.4      2.6      0.0    116.6       63    235.1    182.6      100     0.000     0.000     0.000     0.000      107        0       42       25       21        1        0    15.428       75     40.0    6.177   -9.900     1.76    0.000    0.000       11        9     2089  Maize_Short_Soroca_22May_NonOptimum_26_MPI.PRM
 Tot(110)       22        5     2090    242.4    452.0   1057.4   426.00      0.0    223.6     18.8      0.3      0.0    102.3       46    212.0    164.2      100     0.000     0.000     0.000     0.000      107        0       42       25       20        6        0    14.285       73     40.2    5.739   -9.900     1.83    0.000    0.000       11        9     2090  Maize_Short_Soroca_22May_NonOptimum_26_MPI.PRM
 Tot(111)       22        5     2091    179.0    533.3   1321.0   425.00      0.0    178.1      0.9      2.1      0.0    141.3       56    237.8    186.9       83     0.000     0.000     0.000     0.000      107        0       42       25        6       14       12    13.593       59     40.1    5.453   -9.900     1.44    0.000    0.000       11        9     2091  Maize_Short_Soroca_22May_NonOptimum_26_MPI.PRM
 Tot(112)       22        5     2092    307.2    408.6    995.4   425.00      0.0    292.2     15.0      4.6      0.0    133.9       68    192.9    150.4      100     0.000     0.000     0.000     0.000      107        0       42       25       24        4        0    14.151       75     40.1    5.678   -9.900     1.74    0.000    0.000       11        9     2092  Maize_Short_Soroca_22May_NonOptimum_26_MPI.PRM
 Tot(113)       22        5     2093    318.2    415.0   1049.6   424.00      0.0    301.5     16.7     17.1      0.0    131.8       76    228.1    176.7      100     0.000     0.000     0.000     0.000      107        0       42       25       18        1        0    15.529       75     40.1    6.224   -9.900     1.73    0.000    0.000       11        9     2093  Maize_Short_Soroca_22May_NonOptimum_26_MPI.PRM
 Tot(114)       22        5     2094    187.5    565.1   1323.5   424.00      0.0    181.0      6.5     10.3      0.0    129.0       53    258.6    201.1       80     0.000     0.000     0.000     0.000      107        0       42       25        8        8       15    12.945       55     39.9    5.159   -9.900     1.33    0.000    0.000       11        9     2094  Maize_Short_Soroca_22May_NonOptimum_26_MPI.PRM
 Tot(115)       22        5     2095    159.4    540.3   1239.0   423.00      0.0    159.4      0.0      0.0      0.0    115.0       37    220.2    175.5       92     0.000     0.000     0.000     0.000      107        0       42       25       11       29        5    12.721       59     40.9    5.198   -9.900     1.55    0.000    0.000       11        9     2095  Maize_Short_Soroca_22May_NonOptimum_26_MPI.PRM
 Tot(116)       22        5     2096    171.8    533.2   1256.4   423.00      0.0    171.1      0.7      0.0      0.0    122.6       51    259.5    202.7       87     0.000     0.000     0.000     0.000      107        0       42       25       10       16        9    14.257       61     40.6    5.787   -9.900     1.51    0.000    0.000       11        9     2096  Maize_Short_Soroca_22May_NonOptimum_26_MPI.PRM
 Tot(117)       22        5     2097    268.3    442.6   1143.8   422.00      0.0    250.7     17.6     18.4      0.0    136.0       77    261.4    201.0      100     0.000     0.000     0.000     0.000      107        0       42       25       14        1        0    16.752       75     40.1    6.713   -9.900     1.69    0.000    0.000       11        9     2097  Maize_Short_Soroca_22May_NonOptimum_26_MPI.PRM
 Tot(118)       22        5     2098    216.1    467.2   1148.9   422.00      0.0    212.7      3.4      5.5      0.0    143.5       73    253.8    196.8       99     0.000     0.000     0.000     0.000      107        0       42       25       14        1        1    15.920       74     40.0    6.375   -9.900     1.60    0.000    0.000       11        9     2098  Maize_Short_Soroca_22May_NonOptimum_26_MPI.PRM
 Tot(119)       22        5     2099    197.0    364.3    909.5   421.00      0.0    195.2      1.8      8.7      0.0    110.6       71    177.5    138.8      100     0.000     0.000     0.000     0.000      107        0       42       25       29        1        0    13.833       75     40.0    5.537   -9.900     1.92    0.000    0.000       11        9     2099  Maize_Short_Soroca_22May_NonOptimum_26_MPI.PRM
