AquaCrop 7.0 (August 2022) - Output created on (date) : 24-11-2022   at (time) : 10:19:31

    RunNr     Day1   Month1    Year1     Rain      ETo       GD     CO2      Irri   Infilt   Runoff    Drain   Upflow        E     E/Ex       Tr      TrW   Tr/Trx    SaltIn   SaltOut    SaltUp  SaltProf     Cycle   SaltStr  FertStr  WeedStr  TempStr   ExpStr   StoStr  BioMass  Brelative   HI    Y(dry)  Y(fresh)    WPet      Bin     Bout     DayN   MonthN    YearN
                                           mm       mm  degC.day    ppm        mm       mm       mm       mm       mm       mm        %       mm       mm        %    ton/ha    ton/ha    ton/ha    ton/ha      days       %        %        %        %        %        %    ton/ha        %       %    ton/ha   ton/ha    kg/m3   ton/ha   ton/ha
   Tot(1)        7        5     1981    150.4    483.8   1212.1   340.11      0.0    145.9      4.5     12.1      0.0     84.3       41    248.4    250.3       87     0.000     0.000     0.000     0.000      107        0        0        0       12        5        9    17.662       82     39.6    7.001   -9.900     2.10    0.000    0.000       27        8     1981  Maize_short_Chisinau_7May_Optimum_26_NCC.PRM
   Tot(2)        7        5     1982    192.0    471.0   1188.7   341.22      0.0    191.9      0.1      0.0      0.0     76.4       35    258.6    256.9      100     0.000     0.000     0.000     0.000      107        0        0        0       11        2        0    20.631       96     40.0    8.253   -9.900     2.46    0.000    0.000       27        8     1982  Maize_short_Chisinau_7May_Optimum_26_NCC.PRM
   Tot(3)        7        5     1983    269.2    465.2   1233.5   342.84      0.0    253.3     15.9     23.6      0.0     99.3       48    261.7    261.5      100     0.000     0.000     0.000     0.000      107        0        0        0        9        2        0    20.707       97     40.1    8.297   -9.900     2.30    0.000    0.000       27        8     1983  Maize_short_Chisinau_7May_Optimum_26_NCC.PRM
   Tot(4)        7        5     1984    239.1    438.2   1067.3   344.40      0.0    237.1      2.0      2.8      0.0    134.8       75    245.6    247.7      100     0.000     0.000     0.000     0.000      107        0        0        0       17        0        0    19.708       98     40.0    7.884   -9.900     2.07    0.000    0.000       27        8     1984  Maize_short_Chisinau_7May_Optimum_26_NCC.PRM
   Tot(5)        7        5     1985    292.8    461.8   1172.6   345.87      0.0    263.1     29.7     63.0      0.0    102.2       53    265.5    262.7      100     0.000     0.000     0.000     0.000      107        0        0        0       13        0        0    20.320       97     40.0    8.128   -9.900     2.21    0.000    0.000       27        8     1985  Maize_short_Chisinau_7May_Optimum_26_NCC.PRM
   Tot(6)        7        5     1986    172.4    527.7   1261.6   347.19      0.0    171.9      0.5      0.0      0.0     89.5       39    281.4    282.2       93     0.000     0.000     0.000     0.000      107        0        0        0        8        5        4    19.208       89     40.0    7.686   -9.900     2.07    0.000    0.000       27        8     1986  Maize_short_Chisinau_7May_Optimum_26_NCC.PRM
   Tot(7)        7        5     1987    259.6    481.6   1137.9   348.98      0.0    253.3      6.3      0.0      0.0    110.0       59    294.0    293.3      100     0.000     0.000     0.000     0.000      107        0        0        0       15        3        0    20.410       97     40.2    8.196   -9.900     2.03    0.000    0.000       27        8     1987  Maize_short_Chisinau_7May_Optimum_26_NCC.PRM
   Tot(8)        7        5     1988    236.3    471.5   1252.6   351.45      0.0    227.3      9.0     15.1      0.0    121.2       71    286.2    289.1       93     0.000     0.000     0.000     0.000      107        0        0        0        9        3        5    20.036       90     39.9    8.003   -9.900     1.96    0.000    0.000       27        8     1988  Maize_short_Chisinau_7May_Optimum_26_NCC.PRM
   Tot(9)        7        5     1989    210.4    486.7   1164.0   352.89      0.0    207.5      2.9      2.5      0.0     95.5       49    291.8    290.7       99     0.000     0.000     0.000     0.000      107        0        0        0       14        3        1    20.905       96     40.2    8.402   -9.900     2.17    0.000    0.000       27        8     1989  Maize_short_Chisinau_7May_Optimum_26_NCC.PRM
  Tot(10)        7        5     1990    161.6    507.1   1149.5   354.16      0.0    158.4      3.2      2.2      0.0    115.0       55    257.2    258.0       86     0.000     0.000     0.000     0.000      107        0        0        0       16        5       11    17.797       80     39.9    7.104   -9.900     1.91    0.000    0.000       27        8     1990  Maize_short_Chisinau_7May_Optimum_26_NCC.PRM
  Tot(11)        7        5     1991    438.7    420.7   1183.0   355.48      0.0    393.0     45.7     66.9      0.0    123.6       82    281.3    280.7      100     0.000     0.000     0.000     0.000      107        0        0        0       17        0        0    22.290       98     40.0    8.918   -9.900     2.20    0.000    0.000       27        8     1991  Maize_short_Chisinau_7May_Optimum_26_NCC.PRM
  Tot(12)        7        5     1992    191.1    523.2   1230.9   356.27      0.0    188.5      2.6      5.7      0.0    128.5       66    273.6    274.3       83     0.000     0.000     0.000     0.000      107        0        0        0       16        4       13    17.580       78     39.5    6.943   -9.900     1.73    0.000    0.000       27        8     1992  Maize_short_Chisinau_7May_Optimum_26_NCC.PRM
  Tot(13)        7        5     1993    202.8    503.8   1154.4   356.95      0.0    196.6      6.2     19.9      0.0    106.9       53    274.0    273.7       93     0.000     0.000     0.000     0.000      107        0        0        0       13        3        5    18.764       90     39.9    7.490   -9.900     1.97    0.000    0.000       27        8     1993  Maize_short_Chisinau_7May_Optimum_26_NCC.PRM
  Tot(14)        7        5     1994    258.9    536.5   1263.4   358.63      0.0    219.5     39.4      7.8      0.0    105.8       45    256.5    257.4       84     0.000     0.000     0.000     0.000      107        0        0        0       10       11       11    16.407       72     39.7    6.516   -9.900     1.80    0.000    0.000       27        8     1994  Maize_short_Chisinau_7May_Optimum_26_NCC.PRM
  Tot(15)        7        5     1995    186.0    502.8   1281.6   360.62      0.0    184.0      2.0      2.1      0.0     91.1       44    283.7    282.9       91     0.000     0.000     0.000     0.000      107        0        0        0        8        6        6    20.100       87     40.1    8.059   -9.900     2.15    0.000    0.000       27        8     1995  Maize_short_Chisinau_7May_Optimum_26_NCC.PRM
  Tot(16)        7        5     1996    148.0    541.5   1272.6   362.37      0.0    147.1      0.9      0.0      0.0    101.4       38    231.0    231.1       85     0.000     0.000     0.000     0.000      107        0        0        0       10       18       10    15.398       70     40.5    6.235   -9.900     1.88    0.000    0.000       27        8     1996  Maize_short_Chisinau_7May_Optimum_26_NCC.PRM
  Tot(17)        7        5     1997    305.0    448.8   1194.3   363.47      0.0    288.7     16.3      0.0      0.0     83.2       41    258.3    258.7      100     0.000     0.000     0.000     0.000      107        0        0        0       12        3        0    21.670       96     40.0    8.675   -9.900     2.54    0.000    0.000       27        8     1997  Maize_short_Chisinau_7May_Optimum_26_NCC.PRM
  Tot(18)        7        5     1998    210.4    488.7   1249.2   366.50      0.0    205.7      4.7     10.9      0.0    111.7       61    290.0    289.0       94     0.000     0.000     0.000     0.000      107        0        0        0       14        1        5    20.335       91     39.9    8.123   -9.900     2.02    0.000    0.000       27        8     1998  Maize_short_Chisinau_7May_Optimum_26_NCC.PRM
  Tot(19)        7        5     1999    158.4    516.7   1334.1   368.14      0.0    157.0      1.4      0.0      0.0    100.6       45    268.0    268.6       87     0.000     0.000     0.000     0.000      107        0        0        0        8        7       10    18.415       79     40.1    7.384   -9.900     2.00    0.000    0.000       27        8     1999  Maize_short_Chisinau_7May_Optimum_26_NCC.PRM
  Tot(20)        7        5     2000    167.4    572.2   1257.5   369.41      0.0    163.5      3.9      0.0      0.0     68.3       25    276.6    277.2       91     0.000     0.000     0.000     0.000      107        0        0        0       11       15        6    17.921       82     40.2    7.199   -9.900     2.09    0.000    0.000       27        8     2000  Maize_short_Chisinau_7May_Optimum_26_NCC.PRM
  Tot(21)        7        5     2001    210.4    518.6   1269.3   371.07      0.0    189.0     21.4     20.8      0.0    114.9       57    275.9    275.6       85     0.000     0.000     0.000     0.000      107        0        0        0       13        2       12    18.703       81     39.6    7.401   -9.900     1.89    0.000    0.000       27        8     2001  Maize_short_Chisinau_7May_Optimum_26_NCC.PRM
  Tot(22)        7        5     2002    285.3    517.8   1347.8   373.16      0.0    259.1     26.2      0.0      0.0    101.6       45    297.0    295.1       96     0.000     0.000     0.000     0.000      107        0        0        0        7       18        2    20.670       88     40.9    8.454   -9.900     2.12    0.000    0.000       27        8     2002  Maize_short_Chisinau_7May_Optimum_26_NCC.PRM
  Tot(23)        7        5     2003    186.5    574.0   1346.0   375.80      0.0    185.1      1.4      0.0      0.0     79.3       27    298.2    298.3       98     0.000     0.000     0.000     0.000      107        0        0        0        6       10        1    20.664       90     40.1    8.283   -9.900     2.19    0.000    0.000       27        8     2003  Maize_short_Chisinau_7May_Optimum_26_NCC.PRM
  Tot(24)        7        5     2004    218.3    504.4   1151.0   377.49      0.0    209.4      8.9      0.0      0.0    107.5       51    288.6    288.6       96     0.000     0.000     0.000     0.000      107        0        0        0       16       11        3    20.363       90     40.3    8.212   -9.900     2.07    0.000    0.000       27        8     2004  Maize_short_Chisinau_7May_Optimum_26_NCC.PRM
  Tot(25)        7        5     2005    328.8    485.2   1234.8   379.80      0.0    312.1     16.7     20.4      0.0    126.4       64    298.8    298.4      100     0.000     0.000     0.000     0.000      107        0        0        0       10        1        0    22.452       97     40.1    8.997   -9.900     2.12    0.000    0.000       27        8     2005  Maize_short_Chisinau_7May_Optimum_26_NCC.PRM
  Tot(26)        7        5     2006    272.0    533.8   1259.8   381.90      0.0    265.7      6.3      5.5      0.0    142.1       70    318.0    318.5       94     0.000     0.000     0.000     0.000      107        0        0        0       10        4        5    20.866       90     40.2    8.391   -9.900     1.82    0.000    0.000       27        8     2006  Maize_short_Chisinau_7May_Optimum_26_NCC.PRM
  Tot(27)        7        5     2007    144.6    648.6   1473.6   383.77      0.0    144.1      0.5      0.0      0.0    103.1       31    250.0    251.3       78     0.000     0.000     0.000     0.000      107        0        0        0        2       20       16    14.065       59     40.1    5.642   -9.900     1.60    0.000    0.000       27        8     2007  Maize_short_Chisinau_7May_Optimum_26_NCC.PRM
  Tot(28)        7        5     2008    177.3    560.5   1291.6   385.59      0.0    172.8      4.5      0.0      0.0     88.5       38    300.9    300.8       88     0.000     0.000     0.000     0.000      107        0        0        0        6       10        9    19.421       82     40.2    7.814   -9.900     2.01    0.000    0.000       27        8     2008  Maize_short_Chisinau_7May_Optimum_26_NCC.PRM
  Tot(29)        7        5     2009    161.5    583.3   1333.2   387.37      0.0    160.0      1.5      0.0      0.0     86.6       33    293.0    292.9       86     0.000     0.000     0.000     0.000      107        0        0        0        6       10       11    18.297       78     39.9    7.298   -9.900     1.92    0.000    0.000       27        8     2009  Maize_short_Chisinau_7May_Optimum_26_NCC.PRM
  Tot(30)        7        5     2010    248.4    518.6   1414.0   389.85      0.0    235.0     13.4      0.2      0.0    121.5       59    315.2    314.2       96     0.000     0.000     0.000     0.000      107        0        0        0        7        1        3    21.891       93     40.0    8.751   -9.900     2.00    0.000    0.000       27        8     2010  Maize_short_Chisinau_7May_Optimum_26_NCC.PRM
  Tot(31)        7        5     2011    234.3    546.6   1320.9   391.63      0.0    220.0     14.3      7.4      0.0    112.6       48    306.3    306.6       95     0.000     0.000     0.000     0.000      107        0        0        0        6        2        4    20.849       91     40.0    8.336   -9.900     1.99    0.000    0.000       27        8     2011  Maize_short_Chisinau_7May_Optimum_26_NCC.PRM
  Tot(32)        7        5     2012    192.6    618.6   1442.0   393.82      0.0    189.8      2.8      1.7      0.0    129.4       45    271.7    271.9       80     0.000     0.000     0.000     0.000      107        0        0        0        6       19       15    15.612       66     40.0    6.249   -9.900     1.56    0.000    0.000       27        8     2012  Maize_short_Chisinau_7May_Optimum_26_NCC.PRM
  Tot(33)        7        5     2013    286.6    541.7   1380.1   396.48      0.0    259.3     27.3      1.1      0.0    118.5       54    322.6    323.2       94     0.000     0.000     0.000     0.000      107        0        0        0        4        2        4    21.875       91     39.9    8.734   -9.900     1.98    0.000    0.000       27        8     2013  Maize_short_Chisinau_7May_Optimum_26_NCC.PRM
  Tot(34)        7        5     2014    244.6    539.8   1326.2   398.55      0.0    239.3      5.3      8.4      0.0    121.7       59    306.3    304.5       90     0.000     0.000     0.000     0.000      107        0        0        0        7        6        8    20.050       85     40.0    8.017   -9.900     1.87    0.000    0.000       27        8     2014  Maize_short_Chisinau_7May_Optimum_26_NCC.PRM
  Tot(35)        7        5     2015    123.0    600.5   1355.8   401.00      0.0    122.8      0.2      0.3      0.0     77.9       29    262.6    264.9       79     0.000     0.000     0.000     0.000      107        0        0        0        6       10       16    16.123       69     39.5    6.365   -9.900     1.87    0.000    0.000       27        8     2015  Maize_short_Chisinau_7May_Optimum_26_NCC.PRM
  Tot(36)        7        5     2016    255.7    540.8   1325.7   403.00      0.0    238.9     16.8     33.2      0.0    141.5       73    285.1    284.7       81     0.000     0.000     0.000     0.000      107        0        0        0       10        5       15    17.832       75     39.7    7.078   -9.900     1.66    0.000    0.000       27        8     2016  Maize_short_Chisinau_7May_Optimum_26_NCC.PRM
  Tot(37)        7        5     2017    299.1    552.7   1316.4   405.00      0.0    280.2     18.9     14.6      0.0    112.9       53    345.6    343.8       98     0.000     0.000     0.000     0.000      107        0        0        0        9        2        1    22.546       95     40.1    9.033   -9.900     1.97    0.000    0.000       27        8     2017  Maize_short_Chisinau_7May_Optimum_26_NCC.PRM
  Tot(38)        7        5     2018    279.9    546.1   1430.7   408.00      0.0    265.8     14.1      6.4      0.0    100.9       42    319.5    318.9      100     0.000     0.000     0.000     0.000      107        0        0        0        5        2        0    22.754       96     40.0    9.102   -9.900     2.16    0.000    0.000       27        8     2018  Maize_short_Chisinau_7May_Optimum_26_NCC.PRM
  Tot(39)        7        5     2019    233.9    552.0   1390.8   410.00      0.0    225.8      8.1     15.5      0.0    132.2       61    296.4    298.7       87     0.000     0.000     0.000     0.000      107        0        0        0        3        9       10    19.440       81     40.1    7.804   -9.900     1.82    0.000    0.000       27        8     2019  Maize_short_Chisinau_7May_Optimum_26_NCC.PRM
  Tot(40)        7        5     2020    168.3    521.6   1195.5   412.00      0.0    167.4      0.9      0.4      0.0    123.1       56    252.3    251.0       85     0.000     0.000     0.000     0.000      107        0        0        0       12        9       11    17.822       78     40.0    7.130   -9.900     1.90    0.000    0.000       27        8     2020  Maize_short_Chisinau_7May_Optimum_26_NCC.PRM
  Tot(41)        7        5     2021    151.4    523.9   1141.2   414.00      0.0    145.8      5.6      9.0      0.0    105.2       58    256.2    257.9       80     0.000     0.000     0.000     0.000      107        0        0        0       19        3       14    16.758       76     39.3    6.590   -9.900     1.82    0.000    0.000       27        8     2021  Maize_short_Chisinau_7May_Optimum_26_NCC.PRM
  Tot(42)        7        5     2022    168.3    615.5   1439.1   417.00      0.0    160.3      8.0     16.0      0.0    145.1       47    208.0    208.5       74     0.000     0.000     0.000     0.000       93        0        0        0        7       22       20    11.426       47     29.9    3.416   -9.900     1.01    0.000    0.000       27        8     2022  Maize_short_Chisinau_7May_Optimum_26_NCC.PRM
  Tot(43)        7        5     2023    136.3    515.0   1185.9   419.00      0.0    134.3      2.0      9.4      0.0    110.5       59    240.8    240.4       76     0.000     0.000     0.000     0.000      107        0        0        0       15       12       19    16.125       68     39.5    6.375   -9.900     1.81    0.000    0.000       27        8     2023  Maize_short_Chisinau_7May_Optimum_26_NCC.PRM
  Tot(44)        7        5     2024    147.5    539.5   1150.7   421.00      0.0    141.2      6.3     13.2      0.0    112.1       59    242.4    242.4       74     0.000     0.000     0.000     0.000      107        0        0        0       18        5       18    15.320       69     39.1    5.991   -9.900     1.69    0.000    0.000       27        8     2024  Maize_short_Chisinau_7May_Optimum_26_NCC.PRM
  Tot(45)        7        5     2025    186.0    506.7   1153.5   423.00      0.0    176.4      9.6     29.8      0.0     99.9       61    270.5    270.4       82     0.000     0.000     0.000     0.000      107        0        0        0       15        2       13    17.882       79     39.4    7.041   -9.900     1.90    0.000    0.000       27        8     2025  Maize_short_Chisinau_7May_Optimum_26_NCC.PRM
  Tot(46)        7        5     2026    254.5    503.9   1095.2   424.00      0.0    238.8     15.7     34.9      0.0    120.7       68    291.2    290.6       92     0.000     0.000     0.000     0.000      107        0        0        0       18        0        5    20.325       91     39.9    8.107   -9.900     1.97    0.000    0.000       27        8     2026  Maize_short_Chisinau_7May_Optimum_26_NCC.PRM
  Tot(47)        7        5     2027    167.3    625.7   1445.0   426.00      0.0    167.0      0.3      0.0      0.0    141.0       51    248.7    249.9       75     0.000     0.000     0.000     0.000      105        0        0        0        3       15       22    14.253       59     39.1    5.567   -9.900     1.43    0.000    0.000       27        8     2027  Maize_short_Chisinau_7May_Optimum_26_NCC.PRM
  Tot(48)        7        5     2028    110.4    556.4   1255.4   428.00      0.0    108.2      2.2      4.3      0.0     96.3       40    224.3    224.3       77     0.000     0.000     0.000     0.000      103        0        0        0       15       18       19    14.044       59     39.8    5.593   -9.900     1.75    0.000    0.000       27        8     2028  Maize_short_Chisinau_7May_Optimum_26_NCC.PRM
  Tot(49)        7        5     2029    186.3    440.7    965.4   429.00      0.0    182.3      4.0     19.3      0.0    108.1       69    255.1    253.2       96     0.000     0.000     0.000     0.000      107        0        0        0       25        1        3    20.016       94     40.0    8.013   -9.900     2.21    0.000    0.000       27        8     2029  Maize_short_Chisinau_7May_Optimum_26_NCC.PRM
  Tot(50)        7        5     2030    113.0    611.7   1300.9   431.00      0.0    110.4      2.6     10.9      0.0    108.1       35    208.2    210.1       75     0.000     0.000     0.000     0.000       98        0        0        0       14       21       20    12.261       51     34.5    4.232   -9.900     1.34    0.000    0.000       27        8     2030  Maize_short_Chisinau_7May_Optimum_26_NCC.PRM
  Tot(51)        7        5     2031     46.8    600.3   1350.8   432.00      0.0     46.8      0.0      0.0      0.0     71.4       22    187.4    187.4       74     0.000     0.000     0.000     0.000       94        0        0        0       12       25       20    11.195       46     30.8    3.445   -9.900     1.34    0.000    0.000       27        8     2031  Maize_short_Chisinau_7May_Optimum_26_NCC.PRM
  Tot(52)        7        5     2032    152.9    514.5   1247.2   433.00      0.0    149.5      3.4     15.0      0.0     99.0       54    260.1    259.7       81     0.000     0.000     0.000     0.000      107        0        0        0       11        4       14    18.034       76     39.3    7.095   -9.900     1.98    0.000    0.000       27        8     2032  Maize_short_Chisinau_7May_Optimum_26_NCC.PRM
  Tot(53)        7        5     2033    139.4    540.5   1210.1   435.00      0.0    139.3      0.1      0.0      0.0    107.1       53    250.7    251.1       78     0.000     0.000     0.000     0.000      107        0        0        0       17        7       18    16.053       68     39.2    6.286   -9.900     1.76    0.000    0.000       27        8     2033  Maize_short_Chisinau_7May_Optimum_26_NCC.PRM
  Tot(54)        7        5     2034    240.3    505.1   1128.1   436.00      0.0    219.6     20.7     43.3      0.0    135.0       79    261.2    260.8       83     0.000     0.000     0.000     0.000      107        0        0        0       18        2       13    17.181       78     39.4    6.774   -9.900     1.71    0.000    0.000       27        8     2034  Maize_short_Chisinau_7May_Optimum_26_NCC.PRM
  Tot(55)        7        5     2035     60.0    570.4   1253.6   437.00      0.0     59.8      0.2      2.3      0.0     66.2       26    214.6    215.0       73     0.000     0.000     0.000     0.000      105        0        0        0       11       16       22    13.579       57     39.0    5.294   -9.900     1.90    0.000    0.000       27        8     2035  Maize_short_Chisinau_7May_Optimum_26_NCC.PRM
  Tot(56)        7        5     2036    207.1    457.1   1062.8   438.00      0.0    193.0     14.1     30.7      0.0    103.4       66    267.0    265.6       94     0.000     0.000     0.000     0.000      107        0        0        0       20        1        5    20.305       91     39.9    8.110   -9.900     2.19    0.000    0.000       27        8     2036  Maize_short_Chisinau_7May_Optimum_26_NCC.PRM
  Tot(57)        7        5     2037    117.1    546.0   1298.8   438.00      0.0    117.1      0.0      0.0      0.0     79.2       36    260.8    261.7       80     0.000     0.000     0.000     0.000      107        0        0        0        9        7       15    17.515       73     39.4    6.905   -9.900     2.03    0.000    0.000       27        8     2037  Maize_short_Chisinau_7May_Optimum_26_NCC.PRM
  Tot(58)        7        5     2038    140.3    617.2   1433.2   439.00      0.0    139.8      0.5      1.9      0.0    123.4       41    233.2    233.6       77     0.000     0.000     0.000     0.000      101        0        0        0        5       13       20    14.065       58     37.4    5.254   -9.900     1.48    0.000    0.000       27        8     2038  Maize_short_Chisinau_7May_Optimum_26_NCC.PRM
  Tot(59)        7        5     2039    144.1    517.6   1148.7   440.00      0.0    140.6      3.5      6.7      0.0    104.6       47    232.4    232.3       82     0.000     0.000     0.000     0.000      107        0        0        0       15       11       12    15.973       71     39.9    6.378   -9.900     1.89    0.000    0.000       27        8     2039  Maize_short_Chisinau_7May_Optimum_26_NCC.PRM
  Tot(60)        7        5     2040    187.2    596.9   1322.9   440.00      0.0    175.9     11.3     27.6      0.0    117.3       51    259.0    259.0       76     0.000     0.000     0.000     0.000      107        0        0        0       10        4       18    16.064       69     38.5    6.180   -9.900     1.64    0.000    0.000       27        8     2040  Maize_short_Chisinau_7May_Optimum_26_NCC.PRM
  Tot(61)        7        5     2041    246.0    470.5   1157.1   441.00      0.0    239.0      7.0      9.6      0.0    129.5       78    294.6    292.4       98     0.000     0.000     0.000     0.000      107        0        0        0       14        3        2    21.801       95     40.2    8.766   -9.900     2.07    0.000    0.000       27        8     2041  Maize_short_Chisinau_7May_Optimum_26_NCC.PRM
  Tot(62)        7        5     2042    162.0    557.1   1294.2   441.00      0.0    155.6      6.4     20.2      0.0    125.2       55    231.9    234.2       75     0.000     0.000     0.000     0.000      103        0        0        0       10       12       21    14.345       60     39.0    5.592   -9.900     1.57    0.000    0.000       27        8     2042  Maize_short_Chisinau_7May_Optimum_26_NCC.PRM
  Tot(63)        7        5     2043    192.5    471.0   1083.2   441.00      0.0    177.4     15.1     32.8      0.0    111.8       72    254.7    254.0       84     0.000     0.000     0.000     0.000      107        0        0        0       20        3       12    18.166       80     39.7    7.205   -9.900     1.97    0.000    0.000       27        8     2043  Maize_short_Chisinau_7May_Optimum_26_NCC.PRM
  Tot(64)        7        5     2044    174.8    534.3   1206.4   442.00      0.0    171.9      2.9      3.3      0.0    116.9       62    275.4    275.7       82     0.000     0.000     0.000     0.000      107        0        0        0       14        1       13    17.689       77     39.3    6.950   -9.900     1.77    0.000    0.000       27        8     2044  Maize_short_Chisinau_7May_Optimum_26_NCC.PRM
  Tot(65)        7        5     2045    102.0    559.7   1234.6   442.00      0.0    102.0      0.0      0.0      0.0    104.4       45    221.6    222.1       73     0.000     0.000     0.000     0.000      106        0        0        0        9       10       22    14.322       61     38.8    5.558   -9.900     1.71    0.000    0.000       27        8     2045  Maize_short_Chisinau_7May_Optimum_26_NCC.PRM
  Tot(66)        7        5     2046    200.9    583.6   1398.4   442.00      0.0    191.1      9.8     22.8      0.0    156.7       62    233.5    233.5       77     0.000     0.000     0.000     0.000      103        0        0        0        6        8       20    14.932       61     38.8    5.793   -9.900     1.49    0.000    0.000       27        8     2046  Maize_short_Chisinau_7May_Optimum_26_NCC.PRM
  Tot(67)        7        5     2047    181.2    463.8   1068.7   442.00      0.0    174.5      6.7     13.6      0.0    111.9       70    265.3    264.1       89     0.000     0.000     0.000     0.000      107        0        0        0       20        3        7    20.327       87     40.0    8.129   -9.900     2.16    0.000    0.000       27        8     2047  Maize_short_Chisinau_7May_Optimum_26_NCC.PRM
  Tot(68)        7        5     2048    176.3    511.2   1164.9   442.00      0.0    170.6      5.7     20.8      0.0    122.0       59    236.9    237.1       80     0.000     0.000     0.000     0.000      107        0        0        0       16       12       12    15.530       69     39.9    6.192   -9.900     1.73    0.000    0.000       27        8     2048  Maize_short_Chisinau_7May_Optimum_26_NCC.PRM
  Tot(69)        7        5     2049    129.6    559.9   1288.4   443.00      0.0    129.6      0.0      0.0      0.0    121.4       47    222.3    223.3       78     0.000     0.000     0.000     0.000      105        0        0        0       11       19       20    13.779       57     40.0    5.514   -9.900     1.61    0.000    0.000       27        8     2049  Maize_short_Chisinau_7May_Optimum_26_NCC.PRM
  Tot(70)        7        5     2050     75.3    588.4   1227.7   443.00      0.0     75.1      0.2      0.7      0.0     93.5       32    192.5    192.5       74     0.000     0.000     0.000     0.000       95        0        0        0       20       21       20    11.664       48     31.7    3.696   -9.900     1.31    0.000    0.000       27        8     2050  Maize_short_Chisinau_7May_Optimum_26_NCC.PRM
  Tot(71)        7        5     2051    162.8    500.7   1211.6   443.00      0.0    162.0      0.8      0.9      0.0    111.8       62    264.6    264.2       84     0.000     0.000     0.000     0.000      107        0        0        0       15        3       12    18.380       79     39.5    7.259   -9.900     1.93    0.000    0.000       27        8     2051  Maize_short_Chisinau_7May_Optimum_26_NCC.PRM
  Tot(72)        7        5     2052    234.6    448.0   1038.4   443.00      0.0    212.0     22.6     23.2      0.0    112.8       65    264.6    264.1       99     0.000     0.000     0.000     0.000      107        0        0        0       24        3        1    20.838       96     40.2    8.370   -9.900     2.22    0.000    0.000       27        8     2052  Maize_short_Chisinau_7May_Optimum_26_NCC.PRM
  Tot(73)        7        5     2053    247.4    496.4   1266.4   443.00      0.0    234.7     12.7     36.5      0.0    134.2       79    282.9    282.8       87     0.000     0.000     0.000     0.000      107        0        0        0        8        2        9    20.441       85     39.8    8.141   -9.900     1.95    0.000    0.000       27        8     2053  Maize_short_Chisinau_7May_Optimum_26_NCC.PRM
  Tot(74)        7        5     2054    117.2    648.1   1365.3   443.00      0.0    113.6      3.6      9.4      0.0    112.4       32    204.2    205.1       74     0.000     0.000     0.000     0.000       94        0        0        0        7       23       20    11.441       47     31.0    3.542   -9.900     1.13    0.000    0.000       27        8     2054  Maize_short_Chisinau_7May_Optimum_26_NCC.PRM
  Tot(75)        7        5     2055    199.9    554.1   1282.2   443.00      0.0    176.3     23.6     50.3      0.0    108.0       49    239.8    239.8       78     0.000     0.000     0.000     0.000      106        0        0        0        9        6       20    15.219       64     38.9    5.918   -9.900     1.70    0.000    0.000       27        8     2055  Maize_short_Chisinau_7May_Optimum_26_NCC.PRM
  Tot(76)        7        5     2056    205.4    566.3   1274.4   442.00      0.0    197.4      8.0      0.0      0.0    101.4       49    315.1    314.5       87     0.000     0.000     0.000     0.000      107        0        0        0       10        3       11    19.786       82     39.6    7.837   -9.900     1.88    0.000    0.000       27        8     2056  Maize_short_Chisinau_7May_Optimum_26_NCC.PRM
  Tot(77)        7        5     2057    271.7    509.4   1252.6   442.00      0.0    264.4      7.3     12.2      0.0    138.3       78    321.7    320.6       95     0.000     0.000     0.000     0.000      107        0        0        0       11        2        4    22.205       92     39.9    8.869   -9.900     1.93    0.000    0.000       27        8     2057  Maize_short_Chisinau_7May_Optimum_26_NCC.PRM
  Tot(78)        7        5     2058    178.6    563.8   1311.6   442.00      0.0    171.5      7.1     10.9      0.0    128.7       54    247.9    249.2       78     0.000     0.000     0.000     0.000      107        0        0        0       10       19       17    15.652       66     40.2    6.295   -9.900     1.67    0.000    0.000       27        8     2058  Maize_short_Chisinau_7May_Optimum_26_NCC.PRM
  Tot(79)        7        5     2059    164.8    557.6   1310.6   442.00      0.0    162.1      2.7      1.4      0.0    137.9       57    240.3    240.6       81     0.000     0.000     0.000     0.000      107        0        0        0        9        9       17    15.096       67     39.7    5.988   -9.900     1.58    0.000    0.000       27        8     2059  Maize_short_Chisinau_7May_Optimum_26_NCC.PRM
  Tot(80)        7        5     2060    120.4    528.4   1243.7   442.00      0.0    120.2      0.2      0.0      0.0    109.3       54    232.3    232.3       78     0.000     0.000     0.000     0.000      107        0        0        0       13        8       19    15.428       65     39.2    6.054   -9.900     1.77    0.000    0.000       27        8     2060  Maize_short_Chisinau_7May_Optimum_26_NCC.PRM
  Tot(81)        7        5     2061    222.8    550.2   1215.4   441.00      0.0    209.3     13.5      8.4      0.0    131.8       67    292.6    292.0       84     0.000     0.000     0.000     0.000      107        0        0        0       12        1       12    19.134       80     39.4    7.544   -9.900     1.78    0.000    0.000       27        8     2061  Maize_short_Chisinau_7May_Optimum_26_NCC.PRM
  Tot(82)        7        5     2062     87.2    593.1   1303.7   441.00      0.0     87.2      0.0      0.0      0.0     95.6       30    202.9    203.6       78     0.000     0.000     0.000     0.000       99        0        0        0        6       21       19    12.195       51     36.1    4.396   -9.900     1.48    0.000    0.000       27        8     2062  Maize_short_Chisinau_7May_Optimum_26_NCC.PRM
  Tot(83)        7        5     2063    114.9    572.1   1194.9   441.00      0.0    113.8      1.1      0.0      0.0     91.8       42    246.1    246.1       76     0.000     0.000     0.000     0.000      106        0        0        0       19        3       20    15.190       64     38.6    5.856   -9.900     1.73    0.000    0.000       27        8     2063  Maize_short_Chisinau_7May_Optimum_26_NCC.PRM
  Tot(84)        7        5     2064    108.3    582.1   1337.0   440.00      0.0    108.3      0.0      0.0      0.0    106.3       41    223.8    223.8       76     0.000     0.000     0.000     0.000      103        0        0        0        9       13       20    14.061       59     39.0    5.489   -9.900     1.67    0.000    0.000       27        8     2064  Maize_short_Chisinau_7May_Optimum_26_NCC.PRM
  Tot(85)        7        5     2065    138.8    582.5   1287.9   440.00      0.0    137.9      0.9      1.8      0.0    132.1       53    228.3    228.3       77     0.000     0.000     0.000     0.000      107        0        0        0        7        7       20    15.061       65     39.0    5.867   -9.900     1.63    0.000    0.000       27        8     2065  Maize_short_Chisinau_7May_Optimum_26_NCC.PRM
  Tot(86)        7        5     2066    118.4    633.7   1325.9   440.00      0.0    103.6     14.8     18.7      0.0     96.3       29    204.3    204.3       74     0.000     0.000     0.000     0.000       96        0        0        0        8       23       21    11.827       49     32.5    3.848   -9.900     1.29    0.000    0.000       27        8     2066  Maize_short_Chisinau_7May_Optimum_26_NCC.PRM
  Tot(87)        7        5     2067    178.0    502.1   1233.6   439.00      0.0    174.4      3.6      1.3      0.0    114.7       64    278.0    277.0       87     0.000     0.000     0.000     0.000      107        0        0        0       13        2       10    19.543       83     39.7    7.766   -9.900     1.98    0.000    0.000       27        8     2067  Maize_short_Chisinau_7May_Optimum_26_NCC.PRM
  Tot(88)        7        5     2068    242.4    515.1   1301.3   439.00      0.0    238.8      3.6      7.3      0.0    122.0       63    303.0    301.6       93     0.000     0.000     0.000     0.000      107        0        0        0       12        7        4    21.035       88     40.4    8.503   -9.900     2.00    0.000    0.000       27        8     2068  Maize_short_Chisinau_7May_Optimum_26_NCC.PRM
  Tot(89)        7        5     2069    164.1    586.5   1341.6   438.00      0.0    151.2     12.9     19.0      0.0     91.2       41    266.2    268.4       76     0.000     0.000     0.000     0.000      107        0        0        0       10       13       19    16.079       67     39.5    6.355   -9.900     1.78    0.000    0.000       27        8     2069  Maize_short_Chisinau_7May_Optimum_26_NCC.PRM
  Tot(90)        7        5     2070    204.4    547.7   1278.8   437.00      0.0    173.5     30.9     31.1      0.0    125.2       53    230.3    230.5       78     0.000     0.000     0.000     0.000      104        0        0        0        9       14       19    14.641       61     39.5    5.782   -9.900     1.63    0.000    0.000       27        8     2070  Maize_short_Chisinau_7May_Optimum_26_NCC.PRM
  Tot(91)        7        5     2071    106.4    557.9   1268.7   437.00      0.0    106.4      0.0      0.0      0.0     91.8       37    231.1    230.6       77     0.000     0.000     0.000     0.000      107        0        0        0        8       12       19    14.971       63     39.4    5.900   -9.900     1.83    0.000    0.000       27        8     2071  Maize_short_Chisinau_7May_Optimum_26_NCC.PRM
  Tot(92)        7        5     2072    192.7    454.8   1152.8   436.00      0.0    189.6      3.1      3.9      0.0     92.9       56    284.1    283.5       98     0.000     0.000     0.000     0.000      107        0        0        0       12        0        2    22.424       95     40.0    8.969   -9.900     2.38    0.000    0.000       27        8     2072  Maize_short_Chisinau_7May_Optimum_26_NCC.PRM
  Tot(93)        7        5     2073     94.2    582.7   1235.1   436.00      0.0     93.7      0.5      1.0      0.0     99.7       39    213.2    214.3       72     0.000     0.000     0.000     0.000      101        0        0        0       15       17       22    12.946       54     37.3    4.830   -9.900     1.55    0.000    0.000       27        8     2073  Maize_short_Chisinau_7May_Optimum_26_NCC.PRM
  Tot(94)        7        5     2074    253.7    443.4   1126.4   435.00      0.0    247.5      6.2     12.5      0.0    103.4       54    244.8    243.5      100     0.000     0.000     0.000     0.000      107        0        0        0       15        1        0    20.997       97     40.0    8.399   -9.900     2.41    0.000    0.000       27        8     2074  Maize_short_Chisinau_7May_Optimum_26_NCC.PRM
  Tot(95)        7        5     2075    102.8    578.9   1316.4   435.00      0.0    102.8      0.0      0.0      0.0    102.8       36    218.6    219.9       79     0.000     0.000     0.000     0.000      102        0        0        0        7       12       19    13.954       59     38.6    5.386   -9.900     1.68    0.000    0.000       27        8     2075  Maize_short_Chisinau_7May_Optimum_26_NCC.PRM
  Tot(96)        7        5     2076    189.7    556.5   1293.4   434.00      0.0    188.5      1.2      2.7      0.0    133.8       62    263.2    261.9       80     0.000     0.000     0.000     0.000      107        0        0        0       15        4       15    16.670       71     38.9    6.488   -9.900     1.63    0.000    0.000       27        8     2076  Maize_short_Chisinau_7May_Optimum_26_NCC.PRM
  Tot(97)        7        5     2077    257.6    450.3   1148.7   433.00      0.0    227.6     30.0     48.6      0.0     92.0       60    285.7    285.4       97     0.000     0.000     0.000     0.000      107        0        0        0       14        2        2    22.044       94     40.0    8.827   -9.900     2.34    0.000    0.000       27        8     2077  Maize_short_Chisinau_7May_Optimum_26_NCC.PRM
  Tot(98)        7        5     2078    179.7    631.0   1404.3   433.00      0.0    178.3      1.4      1.2      0.0    153.1       56    249.6    251.2       74     0.000     0.000     0.000     0.000      107        0        0        0        5       13       23    14.936       61     38.6    5.759   -9.900     1.43    0.000    0.000       27        8     2078  Maize_short_Chisinau_7May_Optimum_26_NCC.PRM
  Tot(99)        7        5     2079    128.6    582.3   1258.8   432.00      0.0    121.4      7.2      5.5      0.0     97.5       37    226.1    226.1       77     0.000     0.000     0.000     0.000      100        0        0        0       14       15       20    12.981       54     36.6    4.748   -9.900     1.48    0.000    0.000       27        8     2079  Maize_short_Chisinau_7May_Optimum_26_NCC.PRM
 Tot(100)        7        5     2080    160.2    552.7   1259.9   432.00      0.0    154.8      5.4     12.3      0.0    119.0       54    244.1    244.1       78     0.000     0.000     0.000     0.000      107        0        0        0       12        6       19    15.509       66     39.0    6.045   -9.900     1.66    0.000    0.000       27        8     2080  Maize_short_Chisinau_7May_Optimum_26_NCC.PRM
 Tot(101)        7        5     2081    149.2    568.8   1336.0   431.00      0.0    148.5      0.7      0.4      0.0    125.8       53    244.7    244.8       78     0.000     0.000     0.000     0.000      105        0        0        0        7        8       20    15.377       63     38.9    5.983   -9.900     1.62    0.000    0.000       27        8     2081  Maize_short_Chisinau_7May_Optimum_26_NCC.PRM
 Tot(102)        7        5     2082    208.0    495.8   1240.9   431.00      0.0    205.1      2.9      6.3      0.0    134.1       68    273.7    273.2       91     0.000     0.000     0.000     0.000      107        0        0        0       10        5        7    20.510       88     40.0    8.196   -9.900     2.01    0.000    0.000       27        8     2082  Maize_short_Chisinau_7May_Optimum_26_NCC.PRM
 Tot(103)        7        5     2083    131.3    550.2   1299.5   430.00      0.0    131.3      0.0      0.0      0.0     90.6       43    265.3    265.5       80     0.000     0.000     0.000     0.000      107        0        0        0       11        4       16    17.588       73     39.1    6.876   -9.900     1.93    0.000    0.000       27        8     2083  Maize_short_Chisinau_7May_Optimum_26_NCC.PRM
 Tot(104)        7        5     2084    124.2    576.7   1380.1   429.00      0.0    122.7      1.5      0.4      0.0    113.2       42    223.7    224.0       78     0.000     0.000     0.000     0.000      100        0        0        0        7       14       20    13.430       56     36.6    4.920   -9.900     1.51    0.000    0.000       27        8     2084  Maize_short_Chisinau_7May_Optimum_26_NCC.PRM
 Tot(105)        7        5     2085    231.2    505.6   1143.1   429.00      0.0    198.6     32.6     41.3      0.0    111.6       63    267.2    267.1       84     0.000     0.000     0.000     0.000      107        0        0        0       13        3       13    17.855       78     39.5    7.052   -9.900     1.86    0.000    0.000       27        8     2085  Maize_short_Chisinau_7May_Optimum_26_NCC.PRM
 Tot(106)        7        5     2086     59.2    629.1   1337.3   428.00      0.0     59.2      0.0      0.6      0.0     84.4       25    185.7    185.9       71     0.000     0.000     0.000     0.000       93        0        0        0       15       24       21    10.397       44     29.5    3.072   -9.900     1.15    0.000    0.000       27        8     2086  Maize_short_Chisinau_7May_Optimum_26_NCC.PRM
 Tot(107)        7        5     2087    215.2    557.6   1265.5   428.00      0.0    197.5     17.7     22.9      0.0    139.1       63    258.7    258.0       79     0.000     0.000     0.000     0.000      107        0        0        0        9        6       16    16.955       72     39.5    6.691   -9.900     1.68    0.000    0.000       27        8     2087  Maize_short_Chisinau_7May_Optimum_26_NCC.PRM
 Tot(108)        7        5     2088    241.6    507.2   1216.4   427.00      0.0    230.4     11.2     33.0      0.0    132.1       73    282.7    282.3       86     0.000     0.000     0.000     0.000      107        0        0        0       12        2       11    19.188       82     39.8    7.632   -9.900     1.84    0.000    0.000       27        8     2088  Maize_short_Chisinau_7May_Optimum_26_NCC.PRM
 Tot(109)        7        5     2089    135.6    538.7   1212.3   427.00      0.0    131.2      4.4     20.6      0.0    103.5       49    227.7    228.8       77     0.000     0.000     0.000     0.000      105        0        0        0       16        9       20    14.673       62     39.1    5.736   -9.900     1.73    0.000    0.000       27        8     2089  Maize_short_Chisinau_7May_Optimum_26_NCC.PRM
 Tot(110)        7        5     2090    206.4    514.2   1147.4   426.00      0.0    193.7     12.7     30.5      0.0    106.9       59    275.6    275.1       85     0.000     0.000     0.000     0.000      107        0        0        0       15        4       14    17.837       77     39.5    7.050   -9.900     1.84    0.000    0.000       27        8     2090  Maize_short_Chisinau_7May_Optimum_26_NCC.PRM
 Tot(111)        7        5     2091    141.7    560.2   1245.5   425.00      0.0    138.4      3.3      6.1      0.0    124.9       49    208.7    209.1       75     0.000     0.000     0.000     0.000      107        0        0        0       12       12       19    12.234       55     36.6    4.473   -9.900     1.34    0.000    0.000       27        8     2091  Maize_short_Chisinau_7May_Optimum_26_NCC.PRM
 Tot(112)        7        5     2092    209.6    495.5   1180.0   425.00      0.0    195.3     14.3     35.1      0.0    122.9       68    257.6    257.3       83     0.000     0.000     0.000     0.000      107        0        0        0       11        5       15    17.628       75     39.6    6.984   -9.900     1.84    0.000    0.000       27        8     2092  Maize_short_Chisinau_7May_Optimum_26_NCC.PRM
 Tot(113)        7        5     2093    187.1    519.9   1161.9   424.00      0.0    174.6     12.5     30.5      0.0     99.4       48    256.3    255.0       83     0.000     0.000     0.000     0.000      107        0        0        0       13        6       12    17.470       76     39.4    6.884   -9.900     1.94    0.000    0.000       27        8     2093  Maize_short_Chisinau_7May_Optimum_26_NCC.PRM
 Tot(114)        7        5     2094    148.1    627.6   1438.4   424.00      0.0    145.2      2.9      4.9      0.0    141.4       40    183.4    184.8       71     0.000     0.000     0.000     0.000      107        0        0        0        4       29       17     9.781       40     40.0    3.908   -9.900     1.20    0.000    0.000       27        8     2094  Maize_short_Chisinau_7May_Optimum_26_NCC.PRM
 Tot(115)        7        5     2095    137.1    595.0   1352.6   423.00      0.0    136.8      0.3      1.0      0.0    118.4       42    237.3    237.0       75     0.000     0.000     0.000     0.000      107        0        0        0        6       24       18    14.541       62     40.0    5.813   -9.900     1.63    0.000    0.000       27        8     2095  Maize_short_Chisinau_7May_Optimum_26_NCC.PRM
 Tot(116)        7        5     2096    283.5    433.2   1086.5   423.00      0.0    267.8     15.7     40.8      0.0    122.1       78    268.0    268.1      100     0.000     0.000     0.000     0.000      107        0        0        0       22        0        0    20.864       98     40.0    8.353   -9.900     2.14    0.000    0.000       27        8     2096  Maize_short_Chisinau_7May_Optimum_26_NCC.PRM
 Tot(117)        7        5     2097    107.7    520.7   1205.6   422.00      0.0    107.0      0.7      0.9      0.0     94.3       43    229.0    229.4       81     0.000     0.000     0.000     0.000      106        0        0        0       18       12       18    14.938       64     39.7    5.929   -9.900     1.84    0.000    0.000       27        8     2097  Maize_short_Chisinau_7May_Optimum_26_NCC.PRM
 Tot(118)        7        5     2098    212.6    528.4   1227.6   422.00      0.0    206.6      6.0      7.3      0.0    147.0       76    275.5    274.9       83     0.000     0.000     0.000     0.000      107        0        0        0       11        2       11    18.890       81     39.6    7.479   -9.900     1.77    0.000    0.000       27        8     2098  Maize_short_Chisinau_7May_Optimum_26_NCC.PRM
 Tot(119)        7        5     2099    175.0    531.4   1278.0   421.00      0.0    173.0      2.0      4.7      0.0    115.4       57    273.2    273.0       83     0.000     0.000     0.000     0.000      107        0        0        0       12        6       13    18.318       78     39.7    7.276   -9.900     1.87    0.000    0.000       27        8     2099  Maize_short_Chisinau_7May_Optimum_26_NCC.PRM
