AquaCrop 7.0 (August 2022) - Output created on (date) : 23-11-2022   at (time) : 12:13:21

    RunNr     Day1   Month1    Year1     Rain      ETo       GD     CO2      Irri   Infilt   Runoff    Drain   Upflow        E     E/Ex       Tr      TrW   Tr/Trx    SaltIn   SaltOut    SaltUp  SaltProf     Cycle   SaltStr  FertStr  WeedStr  TempStr   ExpStr   StoStr  BioMass  Brelative   HI    Y(dry)  Y(fresh)    WPet      Bin     Bout     DayN   MonthN    YearN
                                           mm       mm  degC.day    ppm        mm       mm       mm       mm       mm       mm        %       mm       mm        %    ton/ha    ton/ha    ton/ha    ton/ha      days       %        %        %        %        %        %    ton/ha        %       %    ton/ha   ton/ha    kg/m3   ton/ha   ton/ha
   Tot(1)       22        5     1981    240.8    460.2   1219.9   340.11      0.0    210.3     30.5     45.0      0.0    104.1       48    244.4    189.1      100     0.000     0.000     0.000     0.000      107        0       42       25       13        3        0    15.113       74     40.1    6.058   -9.900     1.74    0.000    0.000       11        9     1981  Maize_Short_Soroca_22May_NonOptimum_85_MPI.PRM
   Tot(2)       22        5     1982    274.6    445.7   1204.3   341.22      0.0    238.9     35.7     42.9      0.0    128.1       64    250.3    193.3      100     0.000     0.000     0.000     0.000      107        0       42       25       11        2        0    16.014       74     40.0    6.413   -9.900     1.69    0.000    0.000       11        9     1982  Maize_Short_Soroca_22May_NonOptimum_85_MPI.PRM
   Tot(3)       22        5     1983    219.2    435.3   1214.1   342.84      0.0    214.3      4.9      0.1      0.0    106.4       56    242.1    186.9      100     0.000     0.000     0.000     0.000      107        0       42       25       11        1        0    15.803       75     40.0    6.322   -9.900     1.81    0.000    0.000       11        9     1983  Maize_Short_Soroca_22May_NonOptimum_85_MPI.PRM
   Tot(4)       22        5     1984    324.1    420.3   1075.3   344.40      0.0    305.9     18.2     19.5      0.0    155.4       90    234.9    182.6      100     0.000     0.000     0.000     0.000      107        0       42       25       18        0        0    15.245       75     40.0    6.098   -9.900     1.56    0.000    0.000       11        9     1984  Maize_Short_Soroca_22May_NonOptimum_85_MPI.PRM
   Tot(5)       22        5     1985    381.4    448.7   1131.4   345.87      0.0    343.1     38.3     63.4      0.0    143.5       80    261.4    202.1      100     0.000     0.000     0.000     0.000      107        0       42       25       17        1        0    15.276       75     40.1    6.128   -9.900     1.51    0.000    0.000       11        9     1985  Maize_Short_Soroca_22May_NonOptimum_85_MPI.PRM
   Tot(6)       22        5     1986    162.2    512.9   1240.3   347.19      0.0    161.8      0.4      0.0      0.0    109.8       46    253.4    196.7       94     0.000     0.000     0.000     0.000      107        0       42       25       13        7        5    14.037       69     40.1    5.631   -9.900     1.55    0.000    0.000       11        9     1986  Maize_Short_Soroca_22May_NonOptimum_85_MPI.PRM
   Tot(7)       22        5     1987    256.6    456.5   1133.8   348.98      0.0    246.2     10.4     15.1      0.0    136.1       68    245.6    191.7      100     0.000     0.000     0.000     0.000      107        0       42       25       17       12        0    14.615       73     40.5    5.921   -9.900     1.55    0.000    0.000       11        9     1987  Maize_Short_Soroca_22May_NonOptimum_85_MPI.PRM
   Tot(8)       22        5     1988    324.3    426.4   1235.2   351.45      0.0    304.9     19.4     38.9      0.0    140.6       84    261.7    203.6      100     0.000     0.000     0.000     0.000      107        0       42       25       12        1        0    15.942       76     40.1    6.389   -9.900     1.59    0.000    0.000       11        9     1988  Maize_Short_Soroca_22May_NonOptimum_85_MPI.PRM
   Tot(9)       22        5     1989    398.6    434.0   1151.2   352.89      0.0    334.0     64.6     24.5      0.0    114.7       60    245.6    191.2      100     0.000     0.000     0.000     0.000      107        0       42       25       14        4        0    15.504       74     40.1    6.224   -9.900     1.73    0.000    0.000       11        9     1989  Maize_Short_Soroca_22May_NonOptimum_85_MPI.PRM
  Tot(10)       22        5     1990    193.6    463.7   1109.4   354.16      0.0    190.8      2.8      6.4      0.0    145.0       75    243.2    188.9       92     0.000     0.000     0.000     0.000      107        0       42       25       17        6        8    14.208       68     40.2    5.707   -9.900     1.47    0.000    0.000       11        9     1990  Maize_Short_Soroca_22May_NonOptimum_85_MPI.PRM
  Tot(11)       22        5     1991    419.0    410.7   1159.5   355.48      0.0    366.8     52.2     52.7      0.0    138.5       81    241.6    186.6      100     0.000     0.000     0.000     0.000      107        0       42       25       14        1        0    16.131       76     40.0    6.457   -9.900     1.70    0.000    0.000       11        9     1991  Maize_Short_Soroca_22May_NonOptimum_85_MPI.PRM
  Tot(12)       22        5     1992    208.9    511.5   1268.1   356.27      0.0    203.2      5.7     14.5      0.0    147.2       71    241.9    189.8       80     0.000     0.000     0.000     0.000      107        0       42       25       11       13       14    12.129       55     39.8    4.830   -9.900     1.24    0.000    0.000       11        9     1992  Maize_Short_Soroca_22May_NonOptimum_85_MPI.PRM
  Tot(13)       22        5     1993    240.0    450.5   1102.8   356.95      0.0    233.7      6.3      5.7      0.0    119.2       61    243.7    187.5      100     0.000     0.000     0.000     0.000      107        0       42       25       17        2        0    14.725       75     40.1    5.899   -9.900     1.63    0.000    0.000       11        9     1993  Maize_Short_Soroca_22May_NonOptimum_85_MPI.PRM
  Tot(14)       22        5     1994    254.5    502.2   1248.0   358.63      0.0    222.8     31.7     20.8      0.0    124.3       56    248.7    195.0       87     0.000     0.000     0.000     0.000      107        0       42       25       12       13        8    13.509       60     40.5    5.468   -9.900     1.47    0.000    0.000       11        9     1994  Maize_Short_Soroca_22May_NonOptimum_85_MPI.PRM
  Tot(15)       22        5     1995    376.0    484.7   1320.2   360.62      0.0    320.5     55.5     21.5      0.0    109.4       50    278.5    215.9      100     0.000     0.000     0.000     0.000      107        0       42       25        6        4        0    16.384       73     40.1    6.563   -9.900     1.69    0.000    0.000       11        9     1995  Maize_Short_Soroca_22May_NonOptimum_85_MPI.PRM
  Tot(16)       22        5     1996    300.9    473.4   1194.7   362.37      0.0    280.7     20.2     14.7      0.0     98.5       42    244.4    191.0      100     0.000     0.000     0.000     0.000      107        0       42       25       13        3        0    15.280       73     40.0    6.112   -9.900     1.78    0.000    0.000       11        9     1996  Maize_Short_Soroca_22May_NonOptimum_85_MPI.PRM
  Tot(17)       22        5     1997    330.4    417.9   1118.9   363.47      0.0    311.2     19.2     16.2      0.0    121.6       65    228.4    176.9      100     0.000     0.000     0.000     0.000      107        0       42       25       15        1        0    15.967       75     40.0    6.387   -9.900     1.82    0.000    0.000       11        9     1997  Maize_Short_Soroca_22May_NonOptimum_85_MPI.PRM
  Tot(18)       22        5     1998    279.4    435.7   1188.1   366.50      0.0    261.5     17.9     17.9      0.0    117.5       66    246.1    188.8      100     0.000     0.000     0.000     0.000      107        0       42       25       15        1        0    14.875       75     40.0    5.951   -9.900     1.64    0.000    0.000       11        9     1998  Maize_Short_Soroca_22May_NonOptimum_85_MPI.PRM
  Tot(19)       22        5     1999    167.8    514.8   1406.8   368.14      0.0    167.8      0.0      0.0      0.0    106.3       41    257.4    202.8       94     0.000     0.000     0.000     0.000      107        0       42       25        3       16        4    15.161       66     40.5    6.147   -9.900     1.69    0.000    0.000       11        9     1999  Maize_Short_Soroca_22May_NonOptimum_85_MPI.PRM
  Tot(20)       22        5     2000    266.5    494.1   1237.4   369.41      0.0    256.4     10.1     11.7      0.0    112.2       48    270.3    209.2      100     0.000     0.000     0.000     0.000      107        0       42       25       12        2        0    16.034       74     40.0    6.415   -9.900     1.68    0.000    0.000       11        9     2000  Maize_Short_Soroca_22May_NonOptimum_85_MPI.PRM
  Tot(21)       22        5     2001    315.8    471.8   1256.9   371.07      0.0    291.7     24.1     19.9      0.0    135.7       74    285.6    222.3       96     0.000     0.000     0.000     0.000      107        0       42       25       13        1        4    15.874       71     40.0    6.346   -9.900     1.51    0.000    0.000       11        9     2001  Maize_Short_Soroca_22May_NonOptimum_85_MPI.PRM
  Tot(22)       22        5     2002    383.6    500.9   1374.8   373.16      0.0    349.5     34.1      2.8      0.0    144.8       64    295.6    230.9      100     0.000     0.000     0.000     0.000      107        0       42       25        7       10        0    16.908       73     40.1    6.781   -9.900     1.54    0.000    0.000       11        9     2002  Maize_Short_Soroca_22May_NonOptimum_85_MPI.PRM
  Tot(23)       22        5     2003    341.0    524.1   1271.7   375.80      0.0    288.4     52.6     47.8      0.0    102.3       39    266.2    205.7      100     0.000     0.000     0.000     0.000      107        0       42       25       11        4        0    15.585       73     40.0    6.236   -9.900     1.69    0.000    0.000       11        9     2003  Maize_Short_Soroca_22May_NonOptimum_85_MPI.PRM
  Tot(24)       22        5     2004    246.8    480.3   1170.9   377.49      0.0    225.9     20.9      0.0      0.0     76.1       31    243.8    191.3      100     0.000     0.000     0.000     0.000      107        0       42       25       12        7        0    15.623       72     40.1    6.267   -9.900     1.96    0.000    0.000       11        9     2004  Maize_Short_Soroca_22May_NonOptimum_85_MPI.PRM
  Tot(25)       22        5     2005    191.9    472.0   1278.0   379.80      0.0    190.3      1.6      0.5      0.0    108.7       51    269.4    207.6       99     0.000     0.000     0.000     0.000      107        0       42       25        8        5        1    16.828       74     40.2    6.767   -9.900     1.79    0.000    0.000       11        9     2005  Maize_Short_Soroca_22May_NonOptimum_85_MPI.PRM
  Tot(26)       22        5     2006    297.5    485.6   1226.9   381.90      0.0    283.3     14.2     20.3      0.0    130.8       64    286.8    223.8       99     0.000     0.000     0.000     0.000      107        0       42       25       14       11        0    16.326       73     40.5    6.614   -9.900     1.58    0.000    0.000       11        9     2006  Maize_Short_Soroca_22May_NonOptimum_85_MPI.PRM
  Tot(27)       22        5     2007    171.9    576.2   1439.4   383.77      0.0    171.9      0.0      0.0      0.0    111.7       35    248.0    196.4       90     0.000     0.000     0.000     0.000      107        0       42       25        5       24        7    13.318       59     40.8    5.428   -9.900     1.51    0.000    0.000       11        9     2007  Maize_Short_Soroca_22May_NonOptimum_85_MPI.PRM
  Tot(28)       22        5     2008    348.1    533.3   1326.6   385.59      0.0    288.2     59.9      0.7      0.0    123.6       54    317.8    247.0      100     0.000     0.000     0.000     0.000      107        0       42       25        6        6        0    17.072       73     40.0    6.829   -9.900     1.55    0.000    0.000       11        9     2008  Maize_Short_Soroca_22May_NonOptimum_85_MPI.PRM
  Tot(29)       22        5     2009    203.0    548.8   1334.5   387.37      0.0    201.4      1.6      0.3      0.0    154.6       62    265.5    208.1       86     0.000     0.000     0.000     0.000      107        0       42       25        7        8       13    13.864       60     40.0    5.545   -9.900     1.32    0.000    0.000       11        9     2009  Maize_Short_Soroca_22May_NonOptimum_85_MPI.PRM
  Tot(30)       22        5     2010    347.1    480.7   1367.9   389.85      0.0    318.5     28.6     55.2      0.0    140.3       70    283.4    218.5       98     0.000     0.000     0.000     0.000      107        0       42       25        9        1        1    16.346       74     40.0    6.546   -9.900     1.55    0.000    0.000       11        9     2010  Maize_Short_Soroca_22May_NonOptimum_85_MPI.PRM
  Tot(31)       22        5     2011    182.7    539.3   1341.3   391.63      0.0    180.8      1.9      0.0      0.0    124.7       48    270.0    210.2       91     0.000     0.000     0.000     0.000      107        0       42       25        6        7        8    15.031       65     39.9    6.003   -9.900     1.52    0.000    0.000       11        9     2011  Maize_Short_Soroca_22May_NonOptimum_85_MPI.PRM
  Tot(32)       22        5     2012    126.3    606.4   1414.1   393.82      0.0    126.0      0.3      0.0      0.0    116.6       35    223.3    177.9       79     0.000     0.000     0.000     0.000      107        0       42       25        6       25       16    11.053       48     40.4    4.462   -9.900     1.31    0.000    0.000       11        9     2012  Maize_Short_Soroca_22May_NonOptimum_85_MPI.PRM
  Tot(33)       22        5     2013    245.3    495.7   1303.4   396.48      0.0    225.7     19.6     20.7      0.0    155.8       71    237.6    185.6       86     0.000     0.000     0.000     0.000      107        0       42       25        7        9        8    13.725       60     40.2    5.519   -9.900     1.40    0.000    0.000       11        9     2013  Maize_Short_Soroca_22May_NonOptimum_85_MPI.PRM
  Tot(34)       22        5     2014    253.7    516.6   1359.2   398.55      0.0    231.9     21.8     10.0      0.0    103.5       48    307.9    237.5       99     0.000     0.000     0.000     0.000      107        0       42       25        7        2        1    17.115       74     40.0    6.846   -9.900     1.66    0.000    0.000       11        9     2014  Maize_Short_Soroca_22May_NonOptimum_85_MPI.PRM
  Tot(35)       22        5     2015     64.6    613.4   1397.9   402.00      0.0     64.6      0.0      0.0      0.0     90.2       24    179.8    145.5       77     0.000     0.000     0.000     0.000       97        0       42       25        5       28       19     8.471       37     34.0    2.879   -9.900     1.11    0.000    0.000       11        9     2015  Maize_Short_Soroca_22May_NonOptimum_85_MPI.PRM
  Tot(36)       22        5     2016    223.5    541.1   1411.6   404.00      0.0    221.3      2.2      0.5      0.0    172.0       75    271.0    211.6       84     0.000     0.000     0.000     0.000      107        0       42       25        5       16       13    13.983       59     40.4    5.649   -9.900     1.28    0.000    0.000       11        9     2016  Maize_Short_Soroca_22May_NonOptimum_85_MPI.PRM
  Tot(37)       22        5     2017    190.2    557.9   1350.9   407.00      0.0    188.7      1.5      0.3      0.0    148.1       57    258.0    202.0       86     0.000     0.000     0.000     0.000      107        0       42       25        6       12       13    13.618       59     40.1    5.461   -9.900     1.34    0.000    0.000       11        9     2017  Maize_Short_Soroca_22May_NonOptimum_85_MPI.PRM
  Tot(38)       22        5     2018    247.0    517.0   1451.6   410.00      0.0    234.6     12.4      7.5      0.0    111.3       46    293.1    226.6       99     0.000     0.000     0.000     0.000      107        0       42       25        4        3        1    17.322       73     40.0    6.927   -9.900     1.71    0.000    0.000       11        9     2018  Maize_Short_Soroca_22May_NonOptimum_85_MPI.PRM
  Tot(39)       22        5     2019    224.9    551.2   1441.3   413.00      0.0    207.2     17.7     24.8      0.0    162.1       65    244.6    191.7       82     0.000     0.000     0.000     0.000      107        0       42       25        3        9       16    13.391       57     39.6    5.308   -9.900     1.31    0.000    0.000       11        9     2019  Maize_Short_Soroca_22May_NonOptimum_85_MPI.PRM
  Tot(40)       22        5     2020    191.1    454.3   1082.7   416.00      0.0    190.1      1.0      0.5      0.0    114.0       60    249.6    193.0       99     0.000     0.000     0.000     0.000      107        0       42       25       20        3        1    15.145       74     40.1    6.078   -9.900     1.67    0.000    0.000       11        9     2020  Maize_Short_Soroca_22May_NonOptimum_85_MPI.PRM
  Tot(41)       22        5     2021    248.8    457.7   1121.7   419.00      0.0    235.2     13.6     14.5      0.0    102.9       52    256.5    197.5      100     0.000     0.000     0.000     0.000      107        0       42       25       16        3        0    16.019       74     40.0    6.414   -9.900     1.78    0.000    0.000       11        9     2021  Maize_Short_Soroca_22May_NonOptimum_85_MPI.PRM
  Tot(42)       22        5     2022    292.8    443.1   1107.2   422.00      0.0    261.3     31.5     43.3      0.0    133.0       69    234.8    182.5      100     0.000     0.000     0.000     0.000      107        0       42       25       16        1        0    15.492       75     40.0    6.201   -9.900     1.69    0.000    0.000       11        9     2022  Maize_Short_Soroca_22May_NonOptimum_85_MPI.PRM
  Tot(43)       22        5     2023    260.3    426.1   1088.6   425.00      0.0    241.8     18.5      0.5      0.0    100.0       51    222.7    173.4      100     0.000     0.000     0.000     0.000      107        0       42       25       17        4        0    15.926       74     40.0    6.370   -9.900     1.97    0.000    0.000       11        9     2023  Maize_Short_Soroca_22May_NonOptimum_85_MPI.PRM
  Tot(44)       22        5     2024    210.2    435.0   1008.0   428.00      0.0    205.0      5.2      0.0      0.0    114.5       57    217.1    170.1       99     0.000     0.000     0.000     0.000      107        0       42       25       22        9        1    14.123       73     40.4    5.703   -9.900     1.72    0.000    0.000       11        9     2024  Maize_Short_Soroca_22May_NonOptimum_85_MPI.PRM
  Tot(45)       22        5     2025    167.2    465.0   1091.0   431.00      0.0    164.2      3.0      0.0      0.0     97.3       43    224.3    175.0       93     0.000     0.000     0.000     0.000      107        0       42       25       17       12        5    13.701       66     40.4    5.542   -9.900     1.72    0.000    0.000       11        9     2025  Maize_Short_Soroca_22May_NonOptimum_85_MPI.PRM
  Tot(46)       22        5     2026    246.5    491.9   1290.0   435.00      0.0    235.9     10.6      0.0      0.0    109.0       38    217.7    169.3      100     0.000     0.000     0.000     0.000      107        0       42       25        9        8        0    15.653       71     40.0    6.265   -9.900     1.92    0.000    0.000       11        9     2026  Maize_Short_Soroca_22May_NonOptimum_85_MPI.PRM
  Tot(47)       22        5     2027    263.4    456.0   1163.8   438.00      0.0    251.7     11.7      1.7      0.0    106.3       46    220.6    172.0      100     0.000     0.000     0.000     0.000      107        0       42       25       13        7        0    15.491       73     40.2    6.226   -9.900     1.90    0.000    0.000       11        9     2027  Maize_Short_Soroca_22May_NonOptimum_85_MPI.PRM
  Tot(48)       22        5     2028    297.2    441.4   1066.1   442.00      0.0    289.3      7.9     11.9      0.0    126.3       71    252.0    194.1      100     0.000     0.000     0.000     0.000      107        0       42       25       17        1        0    16.601       75     40.1    6.653   -9.900     1.76    0.000    0.000       11        9     2028  Maize_Short_Soroca_22May_NonOptimum_85_MPI.PRM
  Tot(49)       22        5     2029    360.4    423.0   1192.9   445.00      0.0    293.0     67.4     82.2      0.0    132.3       71    235.0    183.1      100     0.000     0.000     0.000     0.000      107        0       42       25       11        0        0    17.331       76     40.0    6.934   -9.900     1.89    0.000    0.000       11        9     2029  Maize_Short_Soroca_22May_NonOptimum_85_MPI.PRM
  Tot(50)       22        5     2030    151.6    442.1    985.7   449.00      0.0    150.2      1.4      4.2      0.0     99.0       50    209.7    162.8      100     0.000     0.000     0.000     0.000      107        0       42       25       23        3        0    14.577       75     40.1    5.847   -9.900     1.89    0.000    0.000       11        9     2030  Maize_Short_Soroca_22May_NonOptimum_85_MPI.PRM
  Tot(51)       22        5     2031    415.2    405.7   1009.4   452.00      0.0    355.6     59.6    102.9      0.0    127.2       76    209.7    162.3      100     0.000     0.000     0.000     0.000      107        0       42       25       24        0        0    14.481       76     40.0    5.795   -9.900     1.72    0.000    0.000       11        9     2031  Maize_Short_Soroca_22May_NonOptimum_85_MPI.PRM
  Tot(52)       22        5     2032    192.9    496.5   1171.0   456.00      0.0    185.6      7.3      0.0      0.0     92.2       39    259.7    203.4       99     0.000     0.000     0.000     0.000      107        0       42       25       13       18        0    15.816       69     40.4    6.389   -9.900     1.82    0.000    0.000       11        9     2032  Maize_Short_Soroca_22May_NonOptimum_85_MPI.PRM
  Tot(53)       22        5     2033    310.5    479.3   1122.0   460.00      0.0    270.9     39.6     51.6      0.0    125.3       60    254.6    197.9      100     0.000     0.000     0.000     0.000      107        0       42       25       14        4        0    15.678       74     40.1    6.292   -9.900     1.66    0.000    0.000       11        9     2033  Maize_Short_Soroca_22May_NonOptimum_85_MPI.PRM
  Tot(54)       22        5     2034    217.9    525.2   1348.0   464.00      0.0    204.5     13.4     15.0      0.0     90.0       35    272.9    212.1       99     0.000     0.000     0.000     0.000      107        0       42       25        5       10        0    16.546       70     40.2    6.645   -9.900     1.83    0.000    0.000       11        9     2034  Maize_Short_Soroca_22May_NonOptimum_85_MPI.PRM
  Tot(55)       22        5     2035    162.2    502.0   1126.7   468.00      0.0    161.0      1.2      3.8      0.0    130.2       53    223.8    178.6       90     0.000     0.000     0.000     0.000      107        0       42       25       16       14        8    13.302       62     40.1    5.337   -9.900     1.51    0.000    0.000       11        9     2035  Maize_Short_Soroca_22May_NonOptimum_85_MPI.PRM
  Tot(56)       22        5     2036    151.5    554.5   1283.4   472.00      0.0    149.4      2.1      2.3      0.0    120.1       47    236.1    185.3       81     0.000     0.000     0.000     0.000      107        0       42       25       10       13       13    12.828       55     39.8    5.105   -9.900     1.43    0.000    0.000       11        9     2036  Maize_Short_Soroca_22May_NonOptimum_85_MPI.PRM
  Tot(57)       22        5     2037    197.3    442.2   1139.7   476.00      0.0    193.5      3.8     10.1      0.0    133.5       75    243.1    187.6       98     0.000     0.000     0.000     0.000      107        0       42       25       12        1        2    16.402       74     40.0    6.567   -9.900     1.74    0.000    0.000       11        9     2037  Maize_Short_Soroca_22May_NonOptimum_85_MPI.PRM
  Tot(58)       22        5     2038    104.4    514.5   1124.2   481.00      0.0    104.4      0.0      0.0      0.0     98.4       40    219.6    173.2       87     0.000     0.000     0.000     0.000      107        0       42       25       20       18       13    12.395       59     40.3    4.995   -9.900     1.57    0.000    0.000       11        9     2038  Maize_Short_Soroca_22May_NonOptimum_85_MPI.PRM
  Tot(59)       22        5     2039    192.9    475.4   1259.9   485.00      0.0    185.1      7.8      4.7      0.0     94.0       45    263.7    202.5      100     0.000     0.000     0.000     0.000      107        0       42       25        8        2        0    17.202       74     40.0    6.882   -9.900     1.92    0.000    0.000       11        9     2039  Maize_Short_Soroca_22May_NonOptimum_85_MPI.PRM
  Tot(60)       22        5     2040    261.3    423.4   1114.3   489.00      0.0    241.9     19.4     18.3      0.0    137.6       81    240.0    186.5      100     0.000     0.000     0.000     0.000      107        0       42       25       18        0        0    16.702       76     40.0    6.683   -9.900     1.77    0.000    0.000       11        9     2040  Maize_Short_Soroca_22May_NonOptimum_85_MPI.PRM
  Tot(61)       22        5     2041    239.7    486.3   1104.2   494.00      0.0    217.0     22.7      0.0      0.0    101.2       45    249.2    194.3      100     0.000     0.000     0.000     0.000      107        0       42       25       17        5        0    15.779       73     40.1    6.325   -9.900     1.80    0.000    0.000       11        9     2041  Maize_Short_Soroca_22May_NonOptimum_85_MPI.PRM
  Tot(62)       22        5     2042    230.9    463.5   1149.6   499.00      0.0    225.0      5.9      0.0      0.0    106.8       51    251.6    195.2      100     0.000     0.000     0.000     0.000      107        0       42       25       14        3        0    17.071       74     40.0    6.834   -9.900     1.91    0.000    0.000       11        9     2042  Maize_Short_Soroca_22May_NonOptimum_85_MPI.PRM
  Tot(63)       22        5     2043    154.0    485.6   1278.3   504.00      0.0    153.5      0.5      2.0      0.0    120.5       61    245.3    192.0       86     0.000     0.000     0.000     0.000      107        0       42       25        6       10       11    14.970       62     40.2    6.020   -9.900     1.65    0.000    0.000       11        9     2043  Maize_Short_Soroca_22May_NonOptimum_85_MPI.PRM
  Tot(64)       22        5     2044    198.2    490.5   1220.3   508.00      0.0    187.9     10.3      8.8      0.0    109.3       50    260.3    201.4       98     0.000     0.000     0.000     0.000      107        0       42       25       12       10        1    16.371       72     40.3    6.593   -9.900     1.78    0.000    0.000       11        9     2044  Maize_Short_Soroca_22May_NonOptimum_85_MPI.PRM
  Tot(65)       22        5     2045    143.5    492.6   1258.2   513.00      0.0    143.4      0.1      0.0      0.0    104.4       42    231.5    181.5       95     0.000     0.000     0.000     0.000      107        0       42       25        7       14        4    15.680       67     40.4    6.342   -9.900     1.89    0.000    0.000       11        9     2045  Maize_Short_Soroca_22May_NonOptimum_85_MPI.PRM
  Tot(66)       22        5     2046    369.6    439.6   1210.8   519.00      0.0    345.3     24.3     34.9      0.0    131.5       74    258.2    200.7      100     0.000     0.000     0.000     0.000      107        0       42       25       10        1        0    17.811       75     40.1    7.136   -9.900     1.83    0.000    0.000       11        9     2046  Maize_Short_Soroca_22May_NonOptimum_85_MPI.PRM
  Tot(67)       22        5     2047    241.3    431.2   1147.0   524.00      0.0    234.1      7.2      7.9      0.0    128.5       63    216.0    167.2      100     0.000     0.000     0.000     0.000      107        0       42       25       14        5        0    15.971       74     40.0    6.395   -9.900     1.86    0.000    0.000       11        9     2047  Maize_Short_Soroca_22May_NonOptimum_85_MPI.PRM
  Tot(68)       22        5     2048    173.3    531.2   1280.4   529.00      0.0    167.9      5.4      0.0      0.0    109.8       47    266.0    210.2       89     0.000     0.000     0.000     0.000      107        0       42       25       10       19        7    15.484       63     40.7    6.300   -9.900     1.68    0.000    0.000       11        9     2048  Maize_Short_Soroca_22May_NonOptimum_85_MPI.PRM
  Tot(69)       22        5     2049    154.6    469.5   1195.2   535.00      0.0    154.4      0.2      0.0      0.0     98.1       55    262.0    202.1       95     0.000     0.000     0.000     0.000      107        0       42       25       14        2        4    16.196       71     40.0    6.481   -9.900     1.80    0.000    0.000       11        9     2049  Maize_Short_Soroca_22May_NonOptimum_85_MPI.PRM
  Tot(70)       22        5     2050    282.1    448.7   1214.2   541.00      0.0    270.2     11.9      0.0      0.0     95.5       43    223.4    174.4      100     0.000     0.000     0.000     0.000      107        0       42       25       11        3        0    16.847       74     40.0    6.740   -9.900     2.11    0.000    0.000       11        9     2050  Maize_Short_Soroca_22May_NonOptimum_85_MPI.PRM
  Tot(71)       22        5     2051    241.5    476.9   1200.1   546.00      0.0    226.5     15.0      3.8      0.0    103.5       53    270.8    209.7       98     0.000     0.000     0.000     0.000      107        0       42       25       12        4        1    17.257       73     40.2    6.938   -9.900     1.85    0.000    0.000       11        9     2051  Maize_Short_Soroca_22May_NonOptimum_85_MPI.PRM
  Tot(72)       22        5     2052    281.5    445.9   1120.6   552.00      0.0    261.3     20.2      0.0      0.0    112.0       57    236.0    181.7      100     0.000     0.000     0.000     0.000      107        0       42       25       17        4        0    16.354       74     40.2    6.571   -9.900     1.89    0.000    0.000       11        9     2052  Maize_Short_Soroca_22May_NonOptimum_85_MPI.PRM
  Tot(73)       22        5     2053    239.1    513.3   1260.4   558.00      0.0    221.9     17.2      7.9      0.0     94.3       38    256.6    199.3      100     0.000     0.000     0.000     0.000      107        0       42       25       13        6        0    16.223       73     40.1    6.513   -9.900     1.86    0.000    0.000       11        9     2053  Maize_Short_Soroca_22May_NonOptimum_85_MPI.PRM
  Tot(74)       22        5     2054    140.4    552.7   1346.2   564.00      0.0    129.7     10.7     17.0      0.0     99.5       36    225.4    178.0       84     0.000     0.000     0.000     0.000      107        0       42       25        5       17       13    12.926       53     40.0    5.165   -9.900     1.59    0.000    0.000       11        9     2054  Maize_Short_Soroca_22May_NonOptimum_85_MPI.PRM
  Tot(75)       22        5     2055    234.8    478.8   1212.9   571.00      0.0    222.9     11.9      4.1      0.0    122.3       63    266.9    205.8       98     0.000     0.000     0.000     0.000      107        0       42       25       12        6        1    17.212       73     40.3    6.936   -9.900     1.78    0.000    0.000       11        9     2055  Maize_Short_Soroca_22May_NonOptimum_85_MPI.PRM
  Tot(76)       22        5     2056     86.7    534.9   1278.6   577.00      0.0     86.7      0.0      0.0      0.0     86.7       31    214.2    169.8       85     0.000     0.000     0.000     0.000      107        0       42       25        8       15       12    13.320       57     40.0    5.332   -9.900     1.77    0.000    0.000       11        9     2056  Maize_Short_Soroca_22May_NonOptimum_85_MPI.PRM
  Tot(77)       22        5     2057    182.8    547.7   1239.7   583.00      0.0    166.5     16.3      0.0      0.0    107.6       44    245.6    191.7       86     0.000     0.000     0.000     0.000      107        0       42       25       13       17        8    13.885       61     40.6    5.638   -9.900     1.60    0.000    0.000       11        9     2057  Maize_Short_Soroca_22May_NonOptimum_85_MPI.PRM
  Tot(78)       22        5     2058    347.6    419.2   1141.8   590.00      0.0    299.5     48.1     45.4      0.0    116.5       73    244.8    190.3      100     0.000     0.000     0.000     0.000      107        0       42       25       15        3        0    17.514       75     40.1    7.021   -9.900     1.94    0.000    0.000       11        9     2058  Maize_Short_Soroca_22May_NonOptimum_85_MPI.PRM
  Tot(79)       22        5     2059    219.0    542.6   1341.4   597.00      0.0    199.4     19.6     30.6      0.0    136.7       63    254.6    198.6       82     0.000     0.000     0.000     0.000      107        0       42       25        6        5       15    14.424       59     39.5    5.696   -9.900     1.46    0.000    0.000       11        9     2059  Maize_Short_Soroca_22May_NonOptimum_85_MPI.PRM
  Tot(80)       22        5     2060     95.8    550.3   1266.8   604.00      0.0     95.8      0.0      0.0      0.0     94.3       35    221.8    173.8       83     0.000     0.000     0.000     0.000      107        0       42       25        9       18       14    13.051       55     40.2    5.248   -9.900     1.66    0.000    0.000       11        9     2060  Maize_Short_Soroca_22May_NonOptimum_85_MPI.PRM
  Tot(81)       22        5     2061    194.9    427.8   1055.4   611.00      0.0    192.9      2.0      4.0      0.0    112.8       68    236.7    182.5      100     0.000     0.000     0.000     0.000      107        0       42       25       22        4        0    15.990       75     40.2    6.432   -9.900     1.84    0.000    0.000       11        9     2061  Maize_Short_Soroca_22May_NonOptimum_85_MPI.PRM
  Tot(82)       22        5     2062    166.1    498.2   1280.1   618.00      0.0    163.0      3.1      2.3      0.0    128.5       55    235.2    182.6       91     0.000     0.000     0.000     0.000      107        0       42       25        6        7        7    15.811       66     40.1    6.345   -9.900     1.74    0.000    0.000       11        9     2062  Maize_Short_Soroca_22May_NonOptimum_85_MPI.PRM
  Tot(83)       22        5     2063    178.3    503.8   1272.9   625.00      0.0    166.6     11.7      9.9      0.0     98.9       41    246.0    191.4       97     0.000     0.000     0.000     0.000      107        0       42       25        8        6        2    16.306       70     40.1    6.537   -9.900     1.90    0.000    0.000       11        9     2063  Maize_Short_Soroca_22May_NonOptimum_85_MPI.PRM
  Tot(84)       22        5     2064    184.8    486.1   1366.1   632.00      0.0    176.5      8.3     12.0      0.0    117.6       53    249.6    194.6       96     0.000     0.000     0.000     0.000      107        0       42       25        4        9        4    17.065       70     40.3    6.879   -9.900     1.87    0.000    0.000       11        9     2064  Maize_Short_Soroca_22May_NonOptimum_85_MPI.PRM
  Tot(85)       22        5     2065    153.3    484.5   1203.5   639.00      0.0    146.3      7.0     12.5      0.0    100.6       49    243.1    189.2       93     0.000     0.000     0.000     0.000      107        0       42       25       11        3        6    16.027       69     40.0    6.406   -9.900     1.86    0.000    0.000       11        9     2065  Maize_Short_Soroca_22May_NonOptimum_85_MPI.PRM
  Tot(86)       22        5     2066    250.1    621.0   1427.0   647.00      0.0    222.2     27.9      0.0      0.0    111.6       35    253.7    198.4       86     0.000     0.000     0.000     0.000      107        0       42       25        6       13        7    13.875       59     40.2    5.575   -9.900     1.53    0.000    0.000       11        9     2066  Maize_Short_Soroca_22May_NonOptimum_85_MPI.PRM
  Tot(87)       22        5     2067    252.0    477.7   1204.1   654.00      0.0    245.7      6.3      0.0      0.0     95.3       42    239.9    185.3      100     0.000     0.000     0.000     0.000      107        0       42       25       12        3        0    16.948       74     40.0    6.785   -9.900     2.02    0.000    0.000       11        9     2067  Maize_Short_Soroca_22May_NonOptimum_85_MPI.PRM
  Tot(88)       22        5     2068    214.5    491.1   1251.9   662.00      0.0    210.9      3.6     11.2      0.0    120.8       58    253.6    199.0       95     0.000     0.000     0.000     0.000      107        0       42       25       11       12        3    15.898       69     40.6    6.455   -9.900     1.72    0.000    0.000       11        9     2068  Maize_Short_Soroca_22May_NonOptimum_85_MPI.PRM
  Tot(89)       22        5     2069    283.2    457.1   1279.5   669.00      0.0    254.9     28.3     19.8      0.0    102.8       47    220.5    170.7      100     0.000     0.000     0.000     0.000      107        0       42       25        9        2        0    16.842       75     40.1    6.749   -9.900     2.09    0.000    0.000       11        9     2069  Maize_Short_Soroca_22May_NonOptimum_85_MPI.PRM
  Tot(90)       22        5     2070    155.3    512.7   1313.8   677.00      0.0    149.7      5.6     11.6      0.0    105.9       52    249.7    195.8       85     0.000     0.000     0.000     0.000      107        0       42       25        8        9       12    15.000       61     39.9    5.990   -9.900     1.68    0.000    0.000       11        9     2070  Maize_Short_Soroca_22May_NonOptimum_85_MPI.PRM
  Tot(91)       22        5     2071    167.3    548.9   1433.9   685.00      0.0    157.6      9.7     23.4      0.0    122.0       52    235.9    184.7       81     0.000     0.000     0.000     0.000      107        0       42       25        7       13       15    14.031       57     39.6    5.558   -9.900     1.55    0.000    0.000       11        9     2071  Maize_Short_Soroca_22May_NonOptimum_85_MPI.PRM
  Tot(92)       22        5     2072    147.6    589.8   1395.4   693.00      0.0    143.2      4.4      9.8      0.0    117.1       38    209.7    166.4       81     0.000     0.000     0.000     0.000      107        0       42       25        4       25       12    11.793       48     40.5    4.779   -9.900     1.46    0.000    0.000       11        9     2072  Maize_Short_Soroca_22May_NonOptimum_85_MPI.PRM
  Tot(93)       22        5     2073    202.5    414.6   1182.0   701.00      0.0    191.7     10.8      6.8      0.0     95.8       53    219.9    169.9      100     0.000     0.000     0.000     0.000      107        0       42       25       10        3        0    17.566       74     40.0    7.028   -9.900     2.23    0.000    0.000       11        9     2073  Maize_Short_Soroca_22May_NonOptimum_85_MPI.PRM
  Tot(94)       22        5     2074    231.0    443.4   1242.9   709.00      0.0    224.9      6.1      6.1      0.0    117.5       55    215.9    167.5      100     0.000     0.000     0.000     0.000      107        0       42       25        8        1        0    17.255       75     40.0    6.903   -9.900     2.07    0.000    0.000       11        9     2074  Maize_Short_Soroca_22May_NonOptimum_85_MPI.PRM
  Tot(95)       22        5     2075    120.5    521.4   1358.8   717.00      0.0    118.8      1.7      0.0      0.0    109.6       47    219.7    172.8       83     0.000     0.000     0.000     0.000      107        0       42       25        4       16       13    13.204       53     40.4    5.341   -9.900     1.62    0.000    0.000       11        9     2075  Maize_Short_Soroca_22May_NonOptimum_85_MPI.PRM
  Tot(96)       22        5     2076    140.7    549.3   1458.4   725.00      0.0    136.0      4.7      8.0      0.0    110.1       42    230.3    181.5       84     0.000     0.000     0.000     0.000      107        0       42       25        4       20       12    13.965       58     40.4    5.646   -9.900     1.66    0.000    0.000       11        9     2076  Maize_Short_Soroca_22May_NonOptimum_85_MPI.PRM
  Tot(97)       22        5     2077    202.1    506.7   1427.0   733.00      0.0    196.3      5.8      0.0      0.0     92.3       39    256.1    198.8       97     0.000     0.000     0.000     0.000      107        0       42       25        5        8        2    17.174       71     40.1    6.891   -9.900     1.98    0.000    0.000       11        9     2077  Maize_Short_Soroca_22May_NonOptimum_85_MPI.PRM
  Tot(98)       22        5     2078    247.9    492.5   1374.4   742.00      0.0    233.5     14.4     13.3      0.0    124.8       56    250.9    194.9      100     0.000     0.000     0.000     0.000      107        0       42       25        7        2        0    17.328       74     40.0    6.937   -9.900     1.85    0.000    0.000       11        9     2078  Maize_Short_Soroca_22May_NonOptimum_85_MPI.PRM
  Tot(99)       22        5     2079    181.6    502.4   1243.5   750.00      0.0    160.5     21.1      7.5      0.0    109.5       49    245.6    189.9       94     0.000     0.000     0.000     0.000      107        0       42       25        9        6        4    16.458       70     40.1    6.602   -9.900     1.86    0.000    0.000       11        9     2079  Maize_Short_Soroca_22May_NonOptimum_85_MPI.PRM
 Tot(100)       22        5     2080    111.9    515.2   1362.2   758.00      0.0    111.5      0.4      0.0      0.0     83.7       37    239.9    187.3       90     0.000     0.000     0.000     0.000      107        0       42       25        5        7        9    15.401       65     39.9    6.150   -9.900     1.90    0.000    0.000       11        9     2080  Maize_Short_Soroca_22May_NonOptimum_85_MPI.PRM
 Tot(101)       22        5     2081    154.0    493.5   1345.7   767.00      0.0    153.4      0.6      0.0      0.0    109.2       51    247.9    192.0       94     0.000     0.000     0.000     0.000      107        0       42       25        7        8        4    16.594       70     40.3    6.693   -9.900     1.87    0.000    0.000       11        9     2081  Maize_Short_Soroca_22May_NonOptimum_85_MPI.PRM
 Tot(102)       22        5     2082     94.5    646.2   1554.4   775.00      0.0     90.4      4.1      0.0      0.0    103.3       31    205.5    163.6       78     0.000     0.000     0.000     0.000      101        0       42       25        2       19       19    10.609       43     37.6    3.991   -9.900     1.30    0.000    0.000       11        9     2082  Maize_Short_Soroca_22May_NonOptimum_85_MPI.PRM
 Tot(103)       22        5     2083    128.0    542.2   1440.0   784.00      0.0    127.0      1.0      0.7      0.0    120.8       48    204.6    160.9       79     0.000     0.000     0.000     0.000      107        0       42       25        5       15       17    11.686       49     39.6    4.632   -9.900     1.42    0.000    0.000       11        9     2083  Maize_Short_Soroca_22May_NonOptimum_85_MPI.PRM
 Tot(104)       22        5     2084    329.7    452.1   1374.8   792.00      0.0    313.0     16.7     27.3      0.0    124.7       60    225.4    173.8      100     0.000     0.000     0.000     0.000      107        0       42       25        6        1        0    17.280       75     40.0    6.915   -9.900     1.97    0.000    0.000       11        9     2084  Maize_Short_Soroca_22May_NonOptimum_85_MPI.PRM
 Tot(105)       22        5     2085    116.7    587.8   1419.6   801.00      0.0    115.8      0.9      0.0      0.0    114.3       41    215.0    169.0       78     0.000     0.000     0.000     0.000      107        0       42       25        5       13       18    11.972       49     39.9    4.772   -9.900     1.45    0.000    0.000       11        9     2085  Maize_Short_Soroca_22May_NonOptimum_85_MPI.PRM
 Tot(106)       22        5     2086    235.8    538.6   1396.0   810.00      0.0    222.1     13.7      5.5      0.0    120.5       47    268.9    209.6      100     0.000     0.000     0.000     0.000      107        0       42       25        3       17        0    16.997       71     40.4    6.872   -9.900     1.76    0.000    0.000       11        9     2086  Maize_Short_Soroca_22May_NonOptimum_85_MPI.PRM
 Tot(107)       22        5     2087    191.0    492.9   1325.6   818.00      0.0    184.8      6.2     17.1      0.0    125.1       56    239.7    188.1       96     0.000     0.000     0.000     0.000      107        0       42       25        8       14        4    16.215       69     40.6    6.587   -9.900     1.81    0.000    0.000       11        9     2087  Maize_Short_Soroca_22May_NonOptimum_85_MPI.PRM
 Tot(108)       22        5     2088    158.4    529.2   1370.4   827.00      0.0    137.5     20.9     24.9      0.0    107.1       40    210.1    166.4       87     0.000     0.000     0.000     0.000      107        0       42       25        4       21       10    13.727       58     40.6    5.578   -9.900     1.76    0.000    0.000       11        9     2088  Maize_Short_Soroca_22May_NonOptimum_85_MPI.PRM
 Tot(109)       22        5     2089    249.2    457.6   1258.0   836.00      0.0    238.2     11.0     14.3      0.0    113.3       64    251.4    193.3      100     0.000     0.000     0.000     0.000      107        0       42       25       10        5        0    16.946       75     40.3    6.834   -9.900     1.87    0.000    0.000       11        9     2089  Maize_Short_Soroca_22May_NonOptimum_85_MPI.PRM
 Tot(110)       22        5     2090     94.3    597.7   1430.7   845.00      0.0     94.2      0.1      0.0      0.0    107.8       32    185.7    149.8       81     0.000     0.000     0.000     0.000      107        0       42       25        5       26       17    10.308       43     40.4    4.166   -9.900     1.42    0.000    0.000       11        9     2090  Maize_Short_Soroca_22May_NonOptimum_85_MPI.PRM
 Tot(111)       22        5     2091    215.9    521.1   1391.2   854.00      0.0    207.9      8.0      0.0      0.0    107.1       47    263.3    202.8       98     0.000     0.000     0.000     0.000      107        0       42       25        5        6        1    17.062       72     40.3    6.871   -9.900     1.86    0.000    0.000       11        9     2091  Maize_Short_Soroca_22May_NonOptimum_85_MPI.PRM
 Tot(112)       22        5     2092    144.8    670.6   1587.1   863.00      0.0    144.5      0.3      0.0      0.0    128.1       42    239.8    189.4       75     0.000     0.000     0.000     0.000      107        0       42       25        2       13       22    11.539       48     39.0    4.502   -9.900     1.22    0.000    0.000       11        9     2092  Maize_Short_Soroca_22May_NonOptimum_85_MPI.PRM
 Tot(113)       22        5     2093    162.1    533.2   1445.7   872.00      0.0    158.8      3.3      0.0      0.0     89.6       38    265.9    205.4       97     0.000     0.000     0.000     0.000      107        0       42       25        3        5        2    16.964       71     40.1    6.804   -9.900     1.91    0.000    0.000       11        9     2093  Maize_Short_Soroca_22May_NonOptimum_85_MPI.PRM
 Tot(114)       22        5     2094    251.7    445.5   1308.5   881.00      0.0    232.6     19.1     18.8      0.0    126.2       61    217.2    167.8      100     0.000     0.000     0.000     0.000      107        0       42       25        6       10        0    17.148       73     40.5    6.949   -9.900     2.02    0.000    0.000       11        9     2094  Maize_Short_Soroca_22May_NonOptimum_85_MPI.PRM
 Tot(115)       22        5     2095    184.7    576.9   1496.8   890.00      0.0    180.8      3.9      0.0      0.0     89.4       27    242.4    194.6      100     0.000     0.000     0.000     0.000      107        0       42       25        3       20        0    15.396       65     40.3    6.209   -9.900     1.87    0.000    0.000       11        9     2095  Maize_Short_Soroca_22May_NonOptimum_85_MPI.PRM
 Tot(116)       22        5     2096    138.9    682.5   1678.0   899.00      0.0    122.7     16.2      1.2      0.0     84.0       26    259.2    202.4       82     0.000     0.000     0.000     0.000      107        0       42       25        1       10       15    12.997       54     39.3    5.112   -9.900     1.49    0.000    0.000       11        9     2096  Maize_Short_Soroca_22May_NonOptimum_85_MPI.PRM
 Tot(117)       22        5     2097    315.3    467.5   1378.0   908.00      0.0    286.9     28.4      0.0      0.0    109.4       46    213.2    165.6      100     0.000     0.000     0.000     0.000      107        0       42       25        5        8        0    16.756       73     40.1    6.716   -9.900     2.08    0.000    0.000       11        9     2097  Maize_Short_Soroca_22May_NonOptimum_85_MPI.PRM
 Tot(118)       22        5     2098    191.2    478.8   1301.1   917.00      0.0    183.1      8.1     13.2      0.0    118.7       58    242.7    188.7       98     0.000     0.000     0.000     0.000      107        0       42       25        6        5        1    17.238       73     40.2    6.922   -9.900     1.92    0.000    0.000       11        9     2098  Maize_Short_Soroca_22May_NonOptimum_85_MPI.PRM
 Tot(119)       22        5     2099    223.7    545.4   1462.4   927.00      0.0    212.4     11.3      0.7      0.0    117.5       48    238.1    187.3       88     0.000     0.000     0.000     0.000      107        0       42       25        4       20        8    14.463       62     40.7    5.880   -9.900     1.65    0.000    0.000       11        9     2099  Maize_Short_Soroca_22May_NonOptimum_85_MPI.PRM
