AquaCrop 7.0 (August 2022) - Output created on (date) : 23-11-2022   at (time) : 13:01:00

    RunNr     Day1   Month1    Year1     Rain      ETo       GD     CO2      Irri   Infilt   Runoff    Drain   Upflow        E     E/Ex       Tr      TrW   Tr/Trx    SaltIn   SaltOut    SaltUp  SaltProf     Cycle   SaltStr  FertStr  WeedStr  TempStr   ExpStr   StoStr  BioMass  Brelative   HI    Y(dry)  Y(fresh)    WPet      Bin     Bout     DayN   MonthN    YearN
                                           mm       mm  degC.day    ppm        mm       mm       mm       mm       mm       mm        %       mm       mm        %    ton/ha    ton/ha    ton/ha    ton/ha      days       %        %        %        %        %        %    ton/ha        %       %    ton/ha   ton/ha    kg/m3   ton/ha   ton/ha
   Tot(1)       22        5     1981    131.8    514.9   1295.7   340.11      0.0    131.0      0.8      0.0      0.0    103.1       43    242.3    242.5       87     0.000     0.000     0.000     0.000      107        0        0        0        8        8       10    16.780       78     40.1    6.732   -9.900     1.95    0.000    0.000       11        9     1981  Maize_short_Cahul_22May_Optimum_26_NCC.PRM
   Tot(2)       22        5     1982    240.1    482.2   1316.7   341.22      0.0    239.1      1.0      0.0      0.0    135.6       61    275.4    273.7      100     0.000     0.000     0.000     0.000      107        0        0        0        5        3        0    21.610       96     40.1    8.659   -9.900     2.11    0.000    0.000       11        9     1982  Maize_short_Cahul_22May_Optimum_26_NCC.PRM
   Tot(3)       22        5     1983    279.5    484.1   1295.1   342.84      0.0    252.0     27.5     32.8      0.0    123.2       58    279.7    279.7      100     0.000     0.000     0.000     0.000      107        0        0        0        7        5        0    20.958       95     40.2    8.422   -9.900     2.09    0.000    0.000       11        9     1983  Maize_short_Cahul_22May_Optimum_26_NCC.PRM
   Tot(4)       22        5     1984    165.7    468.8   1167.8   344.40      0.0    165.3      0.4      0.0      0.0    136.8       66    242.9    244.6       92     0.000     0.000     0.000     0.000      107        0        0        0       11        5        7    18.697       87     40.1    7.492   -9.900     1.97    0.000    0.000       11        9     1984  Maize_short_Cahul_22May_Optimum_26_NCC.PRM
   Tot(5)       22        5     1985    327.9    481.2   1222.6   345.87      0.0    296.5     31.4     47.4      0.0    134.3       67    278.4    277.7       98     0.000     0.000     0.000     0.000      107        0        0        0       12        3        1    20.283       95     40.1    8.143   -9.900     1.97    0.000    0.000       11        9     1985  Maize_short_Cahul_22May_Optimum_26_NCC.PRM
   Tot(6)       22        5     1986    159.8    540.0   1341.9   347.19      0.0    158.4      1.4      1.2      0.0    122.8       49    246.5    247.1       84     0.000     0.000     0.000     0.000      107        0        0        0        6       11       12    16.625       75     40.0    6.653   -9.900     1.80    0.000    0.000       11        9     1986  Maize_short_Cahul_22May_Optimum_26_NCC.PRM
   Tot(7)       22        5     1987    237.0    495.2   1234.6   348.98      0.0    226.5     10.5      5.8      0.0    111.8       54    293.7    292.6      100     0.000     0.000     0.000     0.000      107        0        0        0       10        4        0    20.802       96     40.2    8.362   -9.900     2.06    0.000    0.000       11        9     1987  Maize_short_Cahul_22May_Optimum_26_NCC.PRM
   Tot(8)       22        5     1988    215.6    496.5   1322.9   351.45      0.0    198.9     16.7     20.3      0.0    136.2       59    210.5    212.3       80     0.000     0.000     0.000     0.000      107        0        0        0        8       15       16    13.431       61     40.0    5.376   -9.900     1.55    0.000    0.000       11        9     1988  Maize_short_Cahul_22May_Optimum_26_NCC.PRM
   Tot(9)       22        5     1989    278.3    464.8   1227.8   352.89      0.0    269.4      8.9      0.8      0.0    130.8       68    277.9    276.5       98     0.000     0.000     0.000     0.000      107        0        0        0       11        5        1    20.634       94     40.1    8.276   -9.900     2.02    0.000    0.000       11        9     1989  Maize_short_Cahul_22May_Optimum_26_NCC.PRM
  Tot(10)       22        5     1990    134.6    519.4   1222.9   354.16      0.0    133.4      1.2      4.2      0.0    134.3       52    210.8    212.4       82     0.000     0.000     0.000     0.000      105        0        0        0       11       20       18    13.755       62     40.0    5.508   -9.900     1.60    0.000    0.000       11        9     1990  Maize_short_Cahul_22May_Optimum_26_NCC.PRM
  Tot(11)       22        5     1991    339.7    442.2   1261.6   355.48      0.0    294.4     45.3     75.9      0.0    115.8       67    276.1    274.2      100     0.000     0.000     0.000     0.000      107        0        0        0       10        2        0    21.539       97     40.1    8.636   -9.900     2.20    0.000    0.000       11        9     1991  Maize_short_Cahul_22May_Optimum_26_NCC.PRM
  Tot(12)       22        5     1992    172.1    523.4   1310.7   356.27      0.0    171.3      0.8      0.0      0.0    144.3       66    238.3    239.0       79     0.000     0.000     0.000     0.000      107        0        0        0        8       14       15    15.310       68     39.8    6.099   -9.900     1.59    0.000    0.000       11        9     1992  Maize_short_Cahul_22May_Optimum_26_NCC.PRM
  Tot(13)       22        5     1993    184.6    515.2   1213.1   356.95      0.0    177.7      6.9     14.6      0.0    114.5       50    251.4    250.8       90     0.000     0.000     0.000     0.000      107        0        0        0       12        7        7    17.190       83     40.1    6.897   -9.900     1.88    0.000    0.000       11        9     1993  Maize_short_Cahul_22May_Optimum_26_NCC.PRM
  Tot(14)       22        5     1994    229.2    520.8   1387.8   358.63      0.0    210.6     18.6     40.3      0.0    104.3       44    270.1    270.5       90     0.000     0.000     0.000     0.000      107        0        0        0        7        9        8    18.841       81     40.2    7.580   -9.900     2.02    0.000    0.000       11        9     1994  Maize_short_Cahul_22May_Optimum_26_NCC.PRM
  Tot(15)       22        5     1995    194.2    524.5   1401.1   360.62      0.0    189.8      4.4      0.3      0.0    116.9       46    243.9    243.6       88     0.000     0.000     0.000     0.000      107        0        0        0        3       13        9    16.803       74     40.3    6.767   -9.900     1.88    0.000    0.000       11        9     1995  Maize_short_Cahul_22May_Optimum_26_NCC.PRM
  Tot(16)       22        5     1996    152.9    537.6   1282.2   362.37      0.0    143.3      9.6      0.4      0.0     97.4       31    204.1    205.2       87     0.000     0.000     0.000     0.000      107        0        0        0        9       27        7    14.129       65     40.7    5.751   -9.900     1.91    0.000    0.000       11        9     1996  Maize_short_Cahul_22May_Optimum_26_NCC.PRM
  Tot(17)       22        5     1997    432.8    444.0   1221.9   363.47      0.0    383.5     49.3     17.3      0.0    148.6       78    259.9    259.2      100     0.000     0.000     0.000     0.000      107        0        0        0       10        1        0    21.660       97     40.0    8.668   -9.900     2.12    0.000    0.000       11        9     1997  Maize_short_Cahul_22May_Optimum_26_NCC.PRM
  Tot(18)       22        5     1998    180.5    509.6   1309.0   366.50      0.0    177.7      2.8      0.0      0.0    130.0       58    239.8    239.7       85     0.000     0.000     0.000     0.000      107        0        0        0        8        8       11    15.759       73     40.0    6.303   -9.900     1.70    0.000    0.000       11        9     1998  Maize_short_Cahul_22May_Optimum_26_NCC.PRM
  Tot(19)       22        5     1999    308.1    540.3   1455.6   368.14      0.0    295.8     12.3     14.0      0.0    143.6       56    302.8    301.2       99     0.000     0.000     0.000     0.000      107        0        0        0        3       11        1    21.267       92     40.6    8.645   -9.900     1.94    0.000    0.000       11        9     1999  Maize_short_Cahul_22May_Optimum_26_NCC.PRM
  Tot(20)       22        5     2000    130.9    589.8   1344.8   369.41      0.0    120.7     10.2      0.0      0.0     97.4       28    199.7    202.3       79     0.000     0.000     0.000     0.000      107        0        0        0        7       21       16    12.156       54     40.0    4.866   -9.900     1.64    0.000    0.000       11        9     2000  Maize_short_Cahul_22May_Optimum_26_NCC.PRM
  Tot(21)       22        5     2001    279.5    543.9   1369.9   371.07      0.0    230.6     48.9     24.2      0.0    149.2       55    207.6    207.9       77     0.000     0.000     0.000     0.000       99        0        0        0        6       18       20    12.713       55     35.9    4.565   -9.900     1.32    0.000    0.000       11        9     2001  Maize_short_Cahul_22May_Optimum_26_NCC.PRM
  Tot(22)       22        5     2002    292.1    558.8   1450.8   373.16      0.0    255.3     36.8      0.0      0.0    114.8       41    303.8    301.7      100     0.000     0.000     0.000     0.000      107        0        0        0        4       15        0    20.987       88     40.0    8.396   -9.900     2.01    0.000    0.000       11        9     2002  Maize_short_Cahul_22May_Optimum_26_NCC.PRM
  Tot(23)       22        5     2003    116.6    575.5   1394.8   375.80      0.0    116.5      0.1      0.0      0.0    105.7       34    221.9    223.7       82     0.000     0.000     0.000     0.000      107        0        0        0        6       17       16    14.768       65     39.7    5.864   -9.900     1.79    0.000    0.000       11        9     2003  Maize_short_Cahul_22May_Optimum_26_NCC.PRM
  Tot(24)       22        5     2004    264.5    517.1   1270.8   377.49      0.0    258.7      5.8      1.7      0.0    127.4       55    294.4    294.3      100     0.000     0.000     0.000     0.000      107        0        0        0        9        6        0    21.236       95     40.2    8.535   -9.900     2.02    0.000    0.000       11        9     2004  Maize_short_Cahul_22May_Optimum_26_NCC.PRM
  Tot(25)       22        5     2005    340.5    530.1   1378.5   379.80      0.0    324.9     15.6      7.2      0.0    155.4       67    317.3    314.7      100     0.000     0.000     0.000     0.000      107        0        0        0        5        2        0    22.748       97     40.0    9.107   -9.900     1.93    0.000    0.000       11        9     2005  Maize_short_Cahul_22May_Optimum_26_NCC.PRM
  Tot(26)       22        5     2006    165.3    572.9   1356.3   381.90      0.0    162.9      2.4      0.0      0.0    124.3       41    230.5    232.4       82     0.000     0.000     0.000     0.000      107        0        0        0        7       27       12    14.781       64     40.6    6.000   -9.900     1.69    0.000    0.000       11        9     2006  Maize_short_Cahul_22May_Optimum_26_NCC.PRM
  Tot(27)       22        5     2007    154.6    656.0   1505.6   383.77      0.0    153.3      1.3      0.0      0.0    127.0       32    225.1    224.7       80     0.000     0.000     0.000     0.000      107        0        0        0        3       31       12    12.953       56     40.5    5.250   -9.900     1.49    0.000    0.000       11        9     2007  Maize_short_Cahul_22May_Optimum_26_NCC.PRM
  Tot(28)       22        5     2008    135.9    609.6   1430.9   385.59      0.0    135.2      0.7      0.6      0.0    124.8       39    228.9    230.0       78     0.000     0.000     0.000     0.000      107        0        0        0        3       20       19    13.684       58     39.6    5.425   -9.900     1.53    0.000    0.000       11        9     2008  Maize_short_Cahul_22May_Optimum_26_NCC.PRM
  Tot(29)       22        5     2009    193.1    608.5   1428.8   387.37      0.0    186.0      7.1      0.0      0.0    132.2       42    241.1    240.7       81     0.000     0.000     0.000     0.000      107        0        0        0        4       18       16    14.136       60     40.1    5.670   -9.900     1.52    0.000    0.000       11        9     2009  Maize_short_Cahul_22May_Optimum_26_NCC.PRM
  Tot(30)       22        5     2010    262.4    544.9   1456.8   389.85      0.0    244.4     18.0     23.9      0.0    128.7       53    284.3    283.2       90     0.000     0.000     0.000     0.000      107        0        0        0        5        4        7    19.216       83     39.8    7.647   -9.900     1.85    0.000    0.000       11        9     2010  Maize_short_Cahul_22May_Optimum_26_NCC.PRM
  Tot(31)       22        5     2011    160.8    575.7   1434.7   391.63      0.0    157.7      3.1      5.8      0.0    126.0       47    245.7    247.2       78     0.000     0.000     0.000     0.000      107        0        0        0        3       14       18    15.775       67     39.7    6.267   -9.900     1.69    0.000    0.000       11        9     2011  Maize_short_Cahul_22May_Optimum_26_NCC.PRM
  Tot(32)       22        5     2012    196.3    639.5   1494.0   393.82      0.0    189.7      6.6      8.8      0.0    148.0       47    246.7    246.5       76     0.000     0.000     0.000     0.000      107        0        0        0        3       24       19    13.737       58     40.2    5.516   -9.900     1.40    0.000    0.000       11        9     2012  Maize_short_Cahul_22May_Optimum_26_NCC.PRM
  Tot(33)       22        5     2013    252.7    563.0   1428.9   396.48      0.0    239.0     13.7     14.7      0.0    144.5       57    275.7    274.9       86     0.000     0.000     0.000     0.000      107        0        0        0        3        8       10    18.220       77     40.0    7.293   -9.900     1.74    0.000    0.000       11        9     2013  Maize_short_Cahul_22May_Optimum_26_NCC.PRM
  Tot(34)       22        5     2014    196.3    573.6   1463.6   398.55      0.0    193.6      2.7      4.1      0.0    147.2       60    268.2    269.0       80     0.000     0.000     0.000     0.000      107        0        0        0        3       10       16    17.068       71     39.6    6.758   -9.900     1.63    0.000    0.000       11        9     2014  Maize_short_Cahul_22May_Optimum_26_NCC.PRM
  Tot(35)       22        5     2015    138.9    636.7   1471.6   401.00      0.0    136.7      2.2      0.0      0.0    116.3       36    235.7    235.8       74     0.000     0.000     0.000     0.000      107        0        0        0        4       20       19    13.876       58     40.0    5.544   -9.900     1.57    0.000    0.000       11        9     2015  Maize_short_Cahul_22May_Optimum_26_NCC.PRM
  Tot(36)       22        5     2016    164.9    587.5   1485.2   403.00      0.0    161.0      3.9      8.4      0.0    156.7       54    214.7    215.0       73     0.000     0.000     0.000     0.000      107        0        0        0        3       24       23    12.842       53     39.8    5.114   -9.900     1.38    0.000    0.000       11        9     2016  Maize_short_Cahul_22May_Optimum_26_NCC.PRM
  Tot(37)       22        5     2017    244.3    575.3   1442.4   405.00      0.0    217.3     27.0      1.4      0.0    121.3       49    311.8    310.9       91     0.000     0.000     0.000     0.000      107        0        0        0        3        6        9    19.916       84     39.9    7.949   -9.900     1.84    0.000    0.000       11        9     2017  Maize_short_Cahul_22May_Optimum_26_NCC.PRM
  Tot(38)       22        5     2018    162.1    570.8   1538.6   408.00      0.0    157.2      4.9      0.0      0.0     92.0       33    276.7    277.1       87     0.000     0.000     0.000     0.000      107        0        0        0        2        8       10    19.108       79     39.6    7.576   -9.900     2.05    0.000    0.000       11        9     2018  Maize_short_Cahul_22May_Optimum_26_NCC.PRM
  Tot(39)       22        5     2019    162.8    617.9   1528.8   410.00      0.0    161.5      1.3      0.0      0.0    164.0       51    219.7    220.3       76     0.000     0.000     0.000     0.000      105        0        0        0        1       20       21    13.827       57     39.4    5.447   -9.900     1.42    0.000    0.000       11        9     2019  Maize_short_Cahul_22May_Optimum_26_NCC.PRM
  Tot(40)       22        5     2020    103.5    568.3   1348.3   412.00      0.0    101.7      1.8      4.9      0.0    114.3       37    194.3    193.8       77     0.000     0.000     0.000     0.000      107        0        0        0        4       27       18    12.317       52     40.4    4.973   -9.900     1.61    0.000    0.000       11        9     2020  Maize_short_Cahul_22May_Optimum_26_NCC.PRM
  Tot(41)       22        5     2021    120.8    568.2   1256.3   414.00      0.0    120.0      0.8      0.0      0.0    106.4       38    202.3    202.8       75     0.000     0.000     0.000     0.000       98        0        0        0        9       15       20    12.650       55     34.7    4.387   -9.900     1.44    0.000    0.000       11        9     2021  Maize_short_Cahul_22May_Optimum_26_NCC.PRM
  Tot(42)       22        5     2022     95.5    649.2   1490.9   417.00      0.0     89.0      6.5     18.2      0.0    104.1       25    166.5    166.5       76     0.000     0.000     0.000     0.000       90        0        0        0        1       32       19     8.982       37     26.0    2.338   -9.900     0.89    0.000    0.000       11        9     2022  Maize_short_Cahul_22May_Optimum_26_NCC.PRM
  Tot(43)       22        5     2023     87.2    586.2   1338.0   419.00      0.0     85.6      1.6      4.2      0.0    112.5       33    176.9    176.9       77     0.000     0.000     0.000     0.000       94        0        0        0        4       28       19    10.906       46     31.0    3.383   -9.900     1.18    0.000    0.000       11        9     2023  Maize_short_Cahul_22May_Optimum_26_NCC.PRM
  Tot(44)       22        5     2024    145.4    586.1   1276.7   421.00      0.0    129.4     16.0     32.0      0.0    121.7       39    185.1    185.1       74     0.000     0.000     0.000     0.000       92        0        0        0       10       25       20    10.700       45     28.8    3.080   -9.900     1.02    0.000    0.000       11        9     2024  Maize_short_Cahul_22May_Optimum_26_NCC.PRM
  Tot(45)       22        5     2025    136.9    534.7   1249.3   423.00      0.0    127.6      9.3     10.7      0.0    121.5       52    214.4    214.4       77     0.000     0.000     0.000     0.000       99        0        0        0       11       13       20    13.198       56     35.5    4.679   -9.900     1.41    0.000    0.000       11        9     2025  Maize_short_Cahul_22May_Optimum_26_NCC.PRM
  Tot(46)       22        5     2026    223.6    534.6   1173.5   424.00      0.0    214.1      9.5      3.7      0.0    141.7       63    244.9    244.5       82     0.000     0.000     0.000     0.000      107        0        0        0       15        8       13    15.630       72     39.5    6.177   -9.900     1.60    0.000    0.000       11        9     2026  Maize_short_Cahul_22May_Optimum_26_NCC.PRM
  Tot(47)       22        5     2027    126.1    626.9   1488.8   426.00      0.0    125.9      0.2      0.0      0.0    140.9       40    196.5    196.8       76     0.000     0.000     0.000     0.000       93        0        0        0        2       25       20    11.156       46     30.1    3.353   -9.900     1.02    0.000    0.000       11        9     2027  Maize_short_Cahul_22May_Optimum_26_NCC.PRM
  Tot(48)       22        5     2028     69.1    577.6   1349.0   428.00      0.0     69.1      0.0      0.0      0.0     91.8       29    189.2    189.2       76     0.000     0.000     0.000     0.000       96        0        0        0       11       26       19    11.434       47     33.0    3.774   -9.900     1.35    0.000    0.000       11        9     2028  Maize_short_Cahul_22May_Optimum_26_NCC.PRM
  Tot(49)       22        5     2029    143.5    467.3   1054.3   429.00      0.0    140.8      2.7      3.3      0.0    104.5       54    235.3    234.2       90     0.000     0.000     0.000     0.000      107        0        0        0       18        6        6    18.145       85     40.1    7.277   -9.900     2.14    0.000    0.000       11        9     2029  Maize_short_Cahul_22May_Optimum_26_NCC.PRM
  Tot(50)       22        5     2030     79.2    637.7   1396.6   431.00      0.0     78.9      0.3      0.0      0.0    107.6       29    176.2    177.3       74     0.000     0.000     0.000     0.000       91        0        0        0        5       28       20     9.827       41     27.8    2.734   -9.900     0.99    0.000    0.000       11        9     2030  Maize_short_Cahul_22May_Optimum_26_NCC.PRM
  Tot(51)       22        5     2031     49.7    606.9   1406.0   432.00      0.0     49.7      0.0      0.0      0.0     78.0       23    185.2    185.2       76     0.000     0.000     0.000     0.000       94        0        0        0        5       26       19    11.025       45     30.9    3.404   -9.900     1.31    0.000    0.000       11        9     2031  Maize_short_Cahul_22May_Optimum_26_NCC.PRM
  Tot(52)       22        5     2032     79.8    564.9   1335.7   433.00      0.0     79.8      0.0      0.0      0.0     95.4       33    203.2    203.2       77     0.000     0.000     0.000     0.000      100        0        0        0        5       18       20    13.022       54     36.5    4.758   -9.900     1.60    0.000    0.000       11        9     2032  Maize_short_Cahul_22May_Optimum_26_NCC.PRM
  Tot(53)       22        5     2033     87.9    561.8   1296.0   435.00      0.0     87.9      0.0      0.0      0.0    113.0       36    181.5    181.5       76     0.000     0.000     0.000     0.000       96        0        0        0        7       25       19    11.021       47     33.2    3.662   -9.900     1.28    0.000    0.000       11        9     2033  Maize_short_Cahul_22May_Optimum_26_NCC.PRM
  Tot(54)       22        5     2034    103.7    544.8   1183.1   436.00      0.0    102.6      1.1      3.0      0.0    116.0       46    199.7    199.7       76     0.000     0.000     0.000     0.000       98        0        0        0       13       15       20    12.497       54     34.6    4.329   -9.900     1.38    0.000    0.000       11        9     2034  Maize_short_Cahul_22May_Optimum_26_NCC.PRM
  Tot(55)       22        5     2035     58.2    577.7   1338.1   437.00      0.0     58.1      0.1      0.0      0.0     88.1       27    179.6    179.6       76     0.000     0.000     0.000     0.000       95        0        0        0        5       24       20    11.258       47     31.9    3.591   -9.900     1.35    0.000    0.000       11        9     2035  Maize_short_Cahul_22May_Optimum_26_NCC.PRM
  Tot(56)       22        5     2036     83.8    523.1   1208.5   438.00      0.0     83.6      0.2      0.0      0.0     93.3       38    210.8    210.8       81     0.000     0.000     0.000     0.000      106        0        0        0       10       12       19    14.848       64     39.5    5.870   -9.900     1.93    0.000    0.000       11        9     2036  Maize_short_Cahul_22May_Optimum_26_NCC.PRM
  Tot(57)       22        5     2037     70.2    582.6   1407.2   438.00      0.0     69.2      1.0      2.2      0.0     94.7       29    184.1    184.1       77     0.000     0.000     0.000     0.000       96        0        0        0        4       24       19    11.769       48     33.2    3.904   -9.900     1.42    0.000    0.000       11        9     2037  Maize_short_Cahul_22May_Optimum_26_NCC.PRM
  Tot(58)       22        5     2038     96.2    613.7   1431.0   439.00      0.0     96.2      0.0      0.0      0.0    123.4       33    180.0    180.0       77     0.000     0.000     0.000     0.000       94        0        0        0        1       28       19    10.537       45     31.1    3.276   -9.900     1.11    0.000    0.000       11        9     2038  Maize_short_Cahul_22May_Optimum_26_NCC.PRM
  Tot(59)       22        5     2039     90.9    555.3   1262.5   440.00      0.0     90.6      0.3      0.0      0.0    105.7       38    202.2    201.9       75     0.000     0.000     0.000     0.000      107        0        0        0        7       21       20    13.738       59     40.0    5.490   -9.900     1.78    0.000    0.000       11        9     2039  Maize_short_Cahul_22May_Optimum_26_NCC.PRM
  Tot(60)       22        5     2040    109.5    622.1   1422.1   440.00      0.0    108.5      1.0      0.0      0.0    124.5       38    197.5    197.8       73     0.000     0.000     0.000     0.000       96        0        0        0        5       20       20    11.621       48     32.6    3.785   -9.900     1.18    0.000    0.000       11        9     2040  Maize_short_Cahul_22May_Optimum_26_NCC.PRM
  Tot(61)       22        5     2041    236.3    493.9   1201.9   441.00      0.0    196.2     40.1      0.0      0.0    132.1       61    262.6    261.4       94     0.000     0.000     0.000     0.000      107        0        0        0       11       18        5    19.665       86     40.8    8.020   -9.900     2.03    0.000    0.000       11        9     2041  Maize_short_Cahul_22May_Optimum_26_NCC.PRM
  Tot(62)       22        5     2042    103.0    572.8   1334.4   441.00      0.0    101.5      1.5      0.0      0.0    100.5       36    217.5    218.7       77     0.000     0.000     0.000     0.000       98        0        0        0        7       15       20    13.004       54     34.6    4.502   -9.900     1.44    0.000    0.000       11        9     2042  Maize_short_Cahul_22May_Optimum_26_NCC.PRM
  Tot(63)       22        5     2043     70.3    562.9   1294.5   441.00      0.0     70.2      0.1      0.0      0.0     88.2       31    201.5    201.5       78     0.000     0.000     0.000     0.000      100        0        0        0        7       20       19    13.278       55     36.7    4.874   -9.900     1.69    0.000    0.000       11        9     2043  Maize_short_Cahul_22May_Optimum_26_NCC.PRM
  Tot(64)       22        5     2044    135.4    580.0   1327.1   442.00      0.0    132.2      3.2      5.5      0.0    132.0       47    210.9    210.9       77     0.000     0.000     0.000     0.000      107        0        0        0        8       17       27    12.664       54     33.9    4.294   -9.900     1.25    0.000    0.000       11        9     2044  Maize_short_Cahul_22May_Optimum_26_NCC.PRM
  Tot(65)       22        5     2045     86.4    599.3   1334.0   442.00      0.0     84.5      1.9      2.5      0.0    109.0       32    181.9    181.9       76     0.000     0.000     0.000     0.000       93        0        0        0        5       27       20    10.656       45     29.9    3.188   -9.900     1.15    0.000    0.000       11        9     2045  Maize_short_Cahul_22May_Optimum_26_NCC.PRM
  Tot(66)       22        5     2046    128.8    583.3   1425.3   442.00      0.0    123.8      5.0      3.1      0.0    138.2       45    198.2    198.2       76     0.000     0.000     0.000     0.000       96        0        0        0        2       20       20    12.495       52     32.7    4.088   -9.900     1.22    0.000    0.000       11        9     2046  Maize_short_Cahul_22May_Optimum_26_NCC.PRM
  Tot(67)       22        5     2047    109.0    533.7   1250.6   442.00      0.0    105.6      3.4      7.5      0.0    121.8       43    193.4    193.4       80     0.000     0.000     0.000     0.000      101        0        0        0        9       23       18    13.424       57     37.9    5.091   -9.900     1.62    0.000    0.000       11        9     2047  Maize_short_Cahul_22May_Optimum_26_NCC.PRM
  Tot(68)       22        5     2048     92.0    558.1   1324.8   442.00      0.0     91.7      0.3      0.0      0.0     91.3       33    217.2    216.7       78     0.000     0.000     0.000     0.000      107        0        0        0        6       19       18    14.311       61     40.2    5.754   -9.900     1.87    0.000    0.000       11        9     2048  Maize_short_Cahul_22May_Optimum_26_NCC.PRM
  Tot(69)       22        5     2049     66.9    593.8   1375.6   443.00      0.0     66.9      0.0      0.9      0.0     98.3       26    171.6    172.0       79     0.000     0.000     0.000     0.000       94        0        0        0        2       32       18    10.021       42     31.2    3.129   -9.900     1.22    0.000    0.000       11        9     2049  Maize_short_Cahul_22May_Optimum_26_NCC.PRM
  Tot(70)       22        5     2050     83.5    601.2   1368.4   443.00      0.0     82.5      1.0      0.0      0.0     99.5       27    171.1    171.1       75     0.000     0.000     0.000     0.000       91        0        0        0        5       30       19     9.741       40     27.9    2.721   -9.900     1.10    0.000    0.000       11        9     2050  Maize_short_Cahul_22May_Optimum_26_NCC.PRM
  Tot(71)       22        5     2051     68.6    516.9   1301.1   443.00      0.0     68.5      0.1      0.0      0.0     95.4       35    180.6    180.6       77     0.000     0.000     0.000     0.000       98        0        0        0        6       21       18    12.215       51     35.3    4.311   -9.900     1.57    0.000    0.000       11        9     2051  Maize_short_Cahul_22May_Optimum_26_NCC.PRM
  Tot(72)       22        5     2052    157.7    472.9   1148.3   443.00      0.0    136.1     21.6     22.0      0.0    106.8       49    220.9    220.9       87     0.000     0.000     0.000     0.000      107        0        0        0       15       17       12    17.193       78     40.4    6.950   -9.900     2.12    0.000    0.000       11        9     2052  Maize_short_Cahul_22May_Optimum_26_NCC.PRM
  Tot(73)       22        5     2053    242.2    528.5   1318.2   443.00      0.0    194.2     48.0     49.1      0.0    147.7       59    206.1    206.1       78     0.000     0.000     0.000     0.000       99        0        0        0        4       20       19    13.438       57     36.0    4.842   -9.900     1.39    0.000    0.000       11        9     2053  Maize_short_Cahul_22May_Optimum_26_NCC.PRM
  Tot(74)       22        5     2054     62.3    671.9   1434.0   443.00      0.0     61.6      0.7      0.0      0.0     91.2       22    174.3    174.3       75     0.000     0.000     0.000     0.000       90        0        0        0        1       30       20     9.467       39     26.9    2.550   -9.900     0.97    0.000    0.000       11        9     2054  Maize_short_Cahul_22May_Optimum_26_NCC.PRM
  Tot(75)       22        5     2055    110.5    591.4   1382.5   443.00      0.0    108.3      2.2      6.4      0.0    120.4       38    193.4    193.4       76     0.000     0.000     0.000     0.000       94        0        0        0        4       22       20    11.430       48     30.9    3.528   -9.900     1.15    0.000    0.000       11        9     2055  Maize_short_Cahul_22May_Optimum_26_NCC.PRM
  Tot(76)       22        5     2056    108.8    586.3   1402.2   442.00      0.0    105.8      3.0      0.0      0.0     99.9       33    221.4    221.4       78     0.000     0.000     0.000     0.000      101        0        0        0        4       16       19    13.578       56     37.6    5.103   -9.900     1.62    0.000    0.000       11        9     2056  Maize_short_Cahul_22May_Optimum_26_NCC.PRM
  Tot(77)       22        5     2057    220.3    548.8   1398.6   442.00      0.0    214.8      5.5      0.0      0.0    147.2       65    286.0    285.6       86     0.000     0.000     0.000     0.000      107        0        0        0        4        3       12    19.258       79     39.6    7.630   -9.900     1.76    0.000    0.000       11        9     2057  Maize_short_Cahul_22May_Optimum_26_NCC.PRM
  Tot(78)       22        5     2058    101.2    564.0   1414.3   442.00      0.0     97.9      3.3      5.0      0.0    110.7       34    188.6    189.0       80     0.000     0.000     0.000     0.000       99        0        0        0        4       29       18    11.943       50     36.3    4.335   -9.900     1.47    0.000    0.000       11        9     2058  Maize_short_Cahul_22May_Optimum_26_NCC.PRM
  Tot(79)       22        5     2059     78.5    610.1   1421.1   442.00      0.0     77.8      0.7      0.0      0.0    102.3       29    184.2    184.2       77     0.000     0.000     0.000     0.000       95        0        0        0        5       27       18    10.503       45     32.1    3.375   -9.900     1.19    0.000    0.000       11        9     2059  Maize_short_Cahul_22May_Optimum_26_NCC.PRM
  Tot(80)       22        5     2060     94.8    546.9   1334.0   442.00      0.0     94.0      0.8      0.0      0.0    113.4       41    195.4    195.4       77     0.000     0.000     0.000     0.000       98        0        0        0        5       19       19    12.772       54     34.9    4.452   -9.900     1.47    0.000    0.000       11        9     2060  Maize_short_Cahul_22May_Optimum_26_NCC.PRM
  Tot(81)       22        5     2061     91.9    576.6   1312.7   441.00      0.0     91.6      0.3      0.0      0.0    119.4       38    181.5    181.5       77     0.000     0.000     0.000     0.000       93        0        0        0        7       26       19    11.163       46     30.2    3.375   -9.900     1.14    0.000    0.000       11        9     2061  Maize_short_Cahul_22May_Optimum_26_NCC.PRM
  Tot(82)       22        5     2062     50.1    630.3   1412.0   441.00      0.0     50.1      0.0      0.0      0.0     84.6       21    169.0    169.0       78     0.000     0.000     0.000     0.000       93        0        0        0        3       32       18     9.925       41     30.4    3.020   -9.900     1.20    0.000    0.000       11        9     2062  Maize_short_Cahul_22May_Optimum_26_NCC.PRM
  Tot(83)       22        5     2063     52.7    619.7   1352.5   441.00      0.0     52.4      0.3      2.2      0.0     73.4       22    188.1    188.1       74     0.000     0.000     0.000     0.000       92        0        0        0       10       24       21    10.717       44     28.7    3.077   -9.900     1.19    0.000    0.000       11        9     2063  Maize_short_Cahul_22May_Optimum_26_NCC.PRM
  Tot(84)       22        5     2064    137.0    579.3   1374.3   440.00      0.0    126.5     10.5     15.0      0.0    122.3       40    197.7    197.7       76     0.000     0.000     0.000     0.000       97        0        0        0        6       22       20    12.172       52     33.7    4.108   -9.900     1.32    0.000    0.000       11        9     2064  Maize_short_Cahul_22May_Optimum_26_NCC.PRM
  Tot(85)       22        5     2065     99.5    625.0   1372.0   440.00      0.0     94.2      5.3      5.5      0.0    116.6       33    182.6    182.6       75     0.000     0.000     0.000     0.000       93        0        0        0        4       25       20    10.809       45     29.8    3.218   -9.900     1.08    0.000    0.000       11        9     2065  Maize_short_Cahul_22May_Optimum_26_NCC.PRM
  Tot(86)       22        5     2066     77.5    617.0   1371.6   440.00      0.0     76.9      0.6      4.5      0.0     95.9       29    191.0    191.0       72     0.000     0.000     0.000     0.000       93        0        0        0        6       22       20    11.188       46     29.8    3.336   -9.900     1.17    0.000    0.000       11        9     2066  Maize_short_Cahul_22May_Optimum_26_NCC.PRM
  Tot(87)       22        5     2067    154.8    510.1   1294.5   439.00      0.0    153.1      1.7      3.6      0.0    130.3       62    240.0    239.9       83     0.000     0.000     0.000     0.000      107        0        0        0        8        8       16    17.011       72     39.6    6.737   -9.900     1.82    0.000    0.000       11        9     2067  Maize_short_Cahul_22May_Optimum_26_NCC.PRM
  Tot(88)       22        5     2068    191.8    528.0   1371.0   439.00      0.0    191.7      0.1      0.0      0.0    120.7       54    284.2    283.3       90     0.000     0.000     0.000     0.000      107        0        0        0        6       16        8    20.110       82     40.5    8.136   -9.900     2.01    0.000    0.000       11        9     2068  Maize_short_Cahul_22May_Optimum_26_NCC.PRM
  Tot(89)       22        5     2069    104.6    595.8   1352.3   438.00      0.0     99.5      5.1      1.9      0.0    110.2       35    202.8    203.8       76     0.000     0.000     0.000     0.000       97        0        0        0        7       23       20    12.187       51     33.6    4.100   -9.900     1.32    0.000    0.000       11        9     2069  Maize_short_Cahul_22May_Optimum_26_NCC.PRM
  Tot(90)       22        5     2070    104.2    580.9   1370.0   437.00      0.0    102.3      1.9      1.1      0.0    120.7       38    194.8    194.8       77     0.000     0.000     0.000     0.000       98        0        0        0        4       22       19    12.445       53     35.1    4.373   -9.900     1.39    0.000    0.000       11        9     2070  Maize_short_Cahul_22May_Optimum_26_NCC.PRM
  Tot(91)       22        5     2071     90.3    543.6   1290.4   437.00      0.0     89.5      0.8      0.0      0.0     97.1       31    181.8    181.8       79     0.000     0.000     0.000     0.000       98        0        0        0        6       25       18    11.843       51     35.1    4.160   -9.900     1.54    0.000    0.000       11        9     2071  Maize_short_Cahul_22May_Optimum_26_NCC.PRM
  Tot(92)       22        5     2072    171.8    484.4   1206.6   436.00      0.0    169.5      2.3      2.9      0.0    129.1       72    256.7    256.6       87     0.000     0.000     0.000     0.000      107        0        0        0        8        2       11    19.060       83     39.6    7.548   -9.900     1.96    0.000    0.000       11        9     2072  Maize_short_Cahul_22May_Optimum_26_NCC.PRM
  Tot(93)       22        5     2073     58.1    587.4   1362.0   436.00      0.0     57.1      1.0      5.0      0.0     81.9       25    178.5    178.6       76     0.000     0.000     0.000     0.000       92        0        0        0        7       27       19    10.456       43     29.2    3.050   -9.900     1.18    0.000    0.000       11        9     2073  Maize_short_Cahul_22May_Optimum_26_NCC.PRM
  Tot(94)       22        5     2074    222.2    440.5   1134.0   435.00      0.0    200.5     21.7     48.4      0.0    102.0       58    245.6    243.9       98     0.000     0.000     0.000     0.000      107        0        0        0       14        2        2    20.262       94     40.1    8.122   -9.900     2.34    0.000    0.000       11        9     2074  Maize_short_Cahul_22May_Optimum_26_NCC.PRM
  Tot(95)       22        5     2075    118.0    570.3   1370.3   435.00      0.0    116.4      1.6      1.6      0.0    136.3       43    185.3    186.9       78     0.000     0.000     0.000     0.000       95        0        0        0        4       24       19    11.327       48     32.1    3.631   -9.900     1.15    0.000    0.000       11        9     2075  Maize_short_Cahul_22May_Optimum_26_NCC.PRM
  Tot(96)       22        5     2076    187.4    548.5   1317.7   434.00      0.0    176.4     11.0     19.5      0.0    126.4       47    204.8    204.3       77     0.000     0.000     0.000     0.000      107        0        0        0        9       21       16    13.382       58     40.1    5.372   -9.900     1.62    0.000    0.000       11        9     2076  Maize_short_Cahul_22May_Optimum_26_NCC.PRM
  Tot(97)       22        5     2077    195.6    505.7   1267.7   433.00      0.0    181.1     14.5      0.0      0.0     96.3       45    281.5    281.5       97     0.000     0.000     0.000     0.000      107        0        0        0       10       10        3    20.343       90     40.4    8.224   -9.900     2.18    0.000    0.000       11        9     2077  Maize_short_Cahul_22May_Optimum_26_NCC.PRM
  Tot(98)       22        5     2078    137.1    615.6   1432.2   433.00      0.0    135.4      1.7      1.2      0.0    148.6       43    187.7    188.4       74     0.000     0.000     0.000     0.000       92        0        0        0        2       24       20    10.761       46     28.7    3.091   -9.900     0.96    0.000    0.000       11        9     2078  Maize_short_Cahul_22May_Optimum_26_NCC.PRM
  Tot(99)       22        5     2079    107.3    607.6   1369.7   432.00      0.0    102.1      5.2     10.5      0.0    113.4       33    188.5    188.5       76     0.000     0.000     0.000     0.000       93        0        0        0        7       26       20    10.778       45     29.9    3.219   -9.900     1.08    0.000    0.000       11        9     2079  Maize_short_Cahul_22May_Optimum_26_NCC.PRM
 Tot(100)       22        5     2080     64.9    575.7   1356.6   432.00      0.0     64.9      0.0      0.0      0.0     94.6       29    177.6    177.6       76     0.000     0.000     0.000     0.000       94        0        0        0        4       25       19    10.748       45     31.0    3.332   -9.900     1.26    0.000    0.000       11        9     2080  Maize_short_Cahul_22May_Optimum_26_NCC.PRM
 Tot(101)       22        5     2081    140.3    597.7   1424.2   431.00      0.0    137.9      2.4      1.2      0.0    154.2       48    196.6    196.6       76     0.000     0.000     0.000     0.000       95        0        0        0        2       21       20    11.985       49     32.0    3.839   -9.900     1.11    0.000    0.000       11        9     2081  Maize_short_Cahul_22May_Optimum_26_NCC.PRM
 Tot(102)       22        5     2082    118.5    530.4   1305.8   431.00      0.0    117.5      1.0      0.2      0.0    114.8       47    224.1    224.1       81     0.000     0.000     0.000     0.000      107        0        0        0        6       13       18    15.686       66     39.5    6.203   -9.900     1.83    0.000    0.000       11        9     2082  Maize_short_Cahul_22May_Optimum_26_NCC.PRM
 Tot(103)       22        5     2083    141.1    560.3   1355.9   430.00      0.0    130.8     10.3     17.1      0.0     97.1       40    240.5    240.5       79     0.000     0.000     0.000     0.000      107        0        0        0        5        8       20    15.556       65     39.0    6.068   -9.900     1.80    0.000    0.000       11        9     2083  Maize_short_Cahul_22May_Optimum_26_NCC.PRM
 Tot(104)       22        5     2084     77.7    591.3   1477.9   429.00      0.0     77.7      0.0      0.0      0.0    104.4       30    181.2    181.2       78     0.000     0.000     0.000     0.000       94        0        0        0        4       28       19    10.888       44     31.1    3.385   -9.900     1.22    0.000    0.000       11        9     2084  Maize_short_Cahul_22May_Optimum_26_NCC.PRM
 Tot(105)       22        5     2085    195.9    517.4   1214.8   429.00      0.0    176.9     19.0     34.9      0.0    134.2       60    222.2    222.2       79     0.000     0.000     0.000     0.000      107        0        0        0        9       10       20    14.851       66     39.6    5.887   -9.900     1.65    0.000    0.000       11        9     2085  Maize_short_Cahul_22May_Optimum_26_NCC.PRM
 Tot(106)       22        5     2086     40.7    609.0   1393.9   428.00      0.0     40.7      0.0      0.0      0.0     73.9       21    175.1    175.1       73     0.000     0.000     0.000     0.000       92        0        0        0        4       27       20     9.863       41     28.9    2.847   -9.900     1.15    0.000    0.000       11        9     2086  Maize_short_Cahul_22May_Optimum_26_NCC.PRM
 Tot(107)       22        5     2087    115.8    602.2   1360.6   428.00      0.0    115.4      0.4      0.0      0.0    137.8       40    185.1    185.1       76     0.000     0.000     0.000     0.000       94        0        0        0        5       26       19    10.901       45     31.0    3.384   -9.900     1.06    0.000    0.000       11        9     2087  Maize_short_Cahul_22May_Optimum_26_NCC.PRM
 Tot(108)       22        5     2088    157.9    557.2   1338.7   427.00      0.0    152.6      5.3     12.8      0.0    154.5       54    197.8    197.8       78     0.000     0.000     0.000     0.000       96        0        0        0        6       21       19    12.346       52     33.0    4.070   -9.900     1.16    0.000    0.000       11        9     2088  Maize_short_Cahul_22May_Optimum_26_NCC.PRM
 Tot(109)       22        5     2089    139.3    547.5   1266.4   427.00      0.0    123.9     15.4     23.6      0.0    111.9       42    197.6    197.6       76     0.000     0.000     0.000     0.000       97        0        0        0        6       19       19    12.334       52     34.1    4.206   -9.900     1.38    0.000    0.000       11        9     2089  Maize_short_Cahul_22May_Optimum_26_NCC.PRM
 Tot(110)       22        5     2090    120.4    579.0   1297.4   426.00      0.0    116.2      4.2      7.5      0.0    115.7       39    208.2    208.2       78     0.000     0.000     0.000     0.000       98        0        0        0        7       18       19    12.511       53     34.8    4.355   -9.900     1.35    0.000    0.000       11        9     2090  Maize_short_Cahul_22May_Optimum_26_NCC.PRM
 Tot(111)       22        5     2091     96.6    605.7   1384.2   425.00      0.0     96.5      0.1      0.0      0.0     99.8       29    200.7    200.2       76     0.000     0.000     0.000     0.000      107        0        0        0        8       31       17    12.027       52     40.4    4.856   -9.900     1.62    0.000    0.000       11        9     2091  Maize_short_Cahul_22May_Optimum_26_NCC.PRM
 Tot(112)       22        5     2092    211.0    508.1   1257.5   425.00      0.0    194.3     16.7     34.4      0.0    111.4       52    257.8    257.2       86     0.000     0.000     0.000     0.000      107        0        0        0        8       13       12    18.087       77     40.4    7.299   -9.900     1.98    0.000    0.000       11        9     2092  Maize_short_Cahul_22May_Optimum_26_NCC.PRM
 Tot(113)       22        5     2093     97.5    560.7   1275.9   424.00      0.0     95.9      1.6      0.6      0.0    108.8       36    192.4    193.3       77     0.000     0.000     0.000     0.000      107        0        0        0        9       25       18    12.304       53     40.3    4.960   -9.900     1.65    0.000    0.000       11        9     2093  Maize_short_Cahul_22May_Optimum_26_NCC.PRM
 Tot(114)       22        5     2094    180.5    602.7   1466.1   424.00      0.0    173.5      7.0     18.7      0.0    155.5       44    180.9    181.1       76     0.000     0.000     0.000     0.000       94        0        0        0        3       29       18    10.099       42     31.2    3.149   -9.900     1.00    0.000    0.000       11        9     2094  Maize_short_Cahul_22May_Optimum_26_NCC.PRM
 Tot(115)       22        5     2095     84.3    616.4   1386.5   423.00      0.0     84.3      0.0      0.0      0.0    101.4       29    200.5    200.4       76     0.000     0.000     0.000     0.000      107        0        0        0        5       23       22    11.564       50     39.8    4.603   -9.900     1.52    0.000    0.000       11        9     2095  Maize_short_Cahul_22May_Optimum_26_NCC.PRM
 Tot(116)       22        5     2096    217.6    453.7   1150.9   423.00      0.0    206.9     10.7     24.2      0.0    110.9       67    270.5    270.6       95     0.000     0.000     0.000     0.000      107        0        0        0       17        4        5    20.400       92     40.2    8.192   -9.900     2.15    0.000    0.000       11        9     2096  Maize_short_Cahul_22May_Optimum_26_NCC.PRM
 Tot(117)       22        5     2097     61.8    544.9   1282.2   422.00      0.0     61.8      0.0      0.0      0.0     83.8       29    195.9    195.9       79     0.000     0.000     0.000     0.000      101        0        0        0       10       21       19    13.133       55     37.8    4.961   -9.900     1.78    0.000    0.000       11        9     2097  Maize_short_Cahul_22May_Optimum_26_NCC.PRM
 Tot(118)       22        5     2098    163.6    537.8   1284.3   422.00      0.0    139.6     24.0     15.3      0.0    117.6       48    226.1    226.0       80     0.000     0.000     0.000     0.000      107        0        0        0        8       13       18    15.550       68     39.6    6.159   -9.900     1.79    0.000    0.000       11        9     2098  Maize_short_Cahul_22May_Optimum_26_NCC.PRM
 Tot(119)       22        5     2099    147.7    526.1   1355.0   421.00      0.0    145.7      2.0      2.9      0.0    132.0       56    225.0    224.7       79     0.000     0.000     0.000     0.000      107        0        0        0        6       17       18    14.874       62     40.2    5.979   -9.900     1.67    0.000    0.000       11        9     2099  Maize_short_Cahul_22May_Optimum_26_NCC.PRM
