AquaCrop 7.0 (August 2022) - Output created on (date) : 24-11-2022   at (time) : 10:31:50

    RunNr     Day1   Month1    Year1     Rain      ETo       GD     CO2      Irri   Infilt   Runoff    Drain   Upflow        E     E/Ex       Tr      TrW   Tr/Trx    SaltIn   SaltOut    SaltUp  SaltProf     Cycle   SaltStr  FertStr  WeedStr  TempStr   ExpStr   StoStr  BioMass  Brelative   HI    Y(dry)  Y(fresh)    WPet      Bin     Bout     DayN   MonthN    YearN
                                           mm       mm  degC.day    ppm        mm       mm       mm       mm       mm       mm        %       mm       mm        %    ton/ha    ton/ha    ton/ha    ton/ha      days       %        %        %        %        %        %    ton/ha        %       %    ton/ha   ton/ha    kg/m3   ton/ha   ton/ha
   Tot(1)        7        5     1981    330.3    462.9   1198.4   340.11      0.0    283.1     47.2     56.3      0.0    109.4       56    275.1    275.1      100     0.000     0.000     0.000     0.000      107        0        0        0       13        1        0    20.792       97     40.0    8.317   -9.900     2.16    0.000    0.000       27        8     1981  Maize_Short_Soroca_7May_Optimum_26_MOHC.PRM
   Tot(2)        7        5     1982    276.4    461.1   1144.9   341.22      0.0    241.0     35.4     37.5      0.0     91.0       42    247.8    245.9      100     0.000     0.000     0.000     0.000      107        0        0        0       15        2        0    20.015       96     40.0    8.006   -9.900     2.36    0.000    0.000       27        8     1982  Maize_Short_Soroca_7May_Optimum_26_MOHC.PRM
   Tot(3)        7        5     1983    225.7    446.3   1210.8   342.84      0.0    220.5      5.2      1.0      0.0     89.5       45    244.5    245.0      100     0.000     0.000     0.000     0.000      107        0        0        0        9        2        0    20.424       96     40.0    8.174   -9.900     2.45    0.000    0.000       27        8     1983  Maize_Short_Soroca_7May_Optimum_26_MOHC.PRM
   Tot(4)        7        5     1984    347.7    420.8   1026.2   344.40      0.0    328.6     19.1     25.4      0.0    144.0       85    231.4    232.8      100     0.000     0.000     0.000     0.000      107        0        0        0       20        0        0    19.009       98     40.0    7.604   -9.900     2.03    0.000    0.000       27        8     1984  Maize_Short_Soroca_7May_Optimum_26_MOHC.PRM
   Tot(5)        7        5     1985    364.9    454.7   1143.8   345.87      0.0    324.5     40.4     56.7      0.0    131.4       68    253.5    250.6      100     0.000     0.000     0.000     0.000      107        0        0        0       15        0        0    19.959       98     40.0    7.984   -9.900     2.07    0.000    0.000       27        8     1985  Maize_Short_Soroca_7May_Optimum_26_MOHC.PRM
   Tot(6)        7        5     1986    164.7    525.3   1219.4   347.19      0.0    164.3      0.4      0.0      0.0     97.0       40    259.0    260.2       92     0.000     0.000     0.000     0.000      107        0        0        0       12        8        5    17.926       86     40.0    7.177   -9.900     2.02    0.000    0.000       27        8     1986  Maize_Short_Soroca_7May_Optimum_26_MOHC.PRM
   Tot(7)        7        5     1987    273.7    465.1   1100.2   348.98      0.0    263.6     10.1     12.9      0.0    131.5       71    274.3    273.3      100     0.000     0.000     0.000     0.000      107        0        0        0       19        6        0    19.794       96     40.4    8.000   -9.900     1.97    0.000    0.000       27        8     1987  Maize_Short_Soroca_7May_Optimum_26_MOHC.PRM
   Tot(8)        7        5     1988    304.7    440.0   1217.4   351.45      0.0    290.1     14.6     30.8      0.0    131.0       80    283.6    287.0      100     0.000     0.000     0.000     0.000      107        0        0        0       10        1        0    21.617       98     40.0    8.653   -9.900     2.09    0.000    0.000       27        8     1988  Maize_Short_Soroca_7May_Optimum_26_MOHC.PRM
   Tot(9)        7        5     1989    282.2    464.6   1130.1   352.89      0.0    262.4     19.8     25.4      0.0    101.1       53    275.0    273.7      100     0.000     0.000     0.000     0.000      107        0        0        0       15        2        0    20.739       97     40.1    8.313   -9.900     2.21    0.000    0.000       27        8     1989  Maize_Short_Soroca_7May_Optimum_26_MOHC.PRM
  Tot(10)        7        5     1990    185.9    477.8   1101.1   354.16      0.0    184.2      1.7      2.5      0.0    113.8       58    266.9    266.9       95     0.000     0.000     0.000     0.000      107        0        0        0       18        3        4    19.765       91     40.0    7.913   -9.900     2.08    0.000    0.000       27        8     1990  Maize_Short_Soroca_7May_Optimum_26_MOHC.PRM
  Tot(11)        7        5     1991    456.1    412.7   1129.9   355.48      0.0    403.6     52.5     46.9      0.0    128.5       85    271.1    271.6      100     0.000     0.000     0.000     0.000      107        0        0        0       20        0        0    22.044       98     40.0    8.819   -9.900     2.21    0.000    0.000       27        8     1991  Maize_Short_Soroca_7May_Optimum_26_MOHC.PRM
  Tot(12)        7        5     1992    184.4    507.5   1204.4   356.27      0.0    182.6      1.8      4.3      0.0    130.3       69    268.1    268.2       83     0.000     0.000     0.000     0.000      107        0        0        0       16        5       12    17.662       78     39.7    7.016   -9.900     1.76    0.000    0.000       27        8     1992  Maize_Short_Soroca_7May_Optimum_26_MOHC.PRM
  Tot(13)        7        5     1993    225.5    480.7   1127.5   356.95      0.0    219.8      5.7      9.9      0.0    124.3       62    266.5    266.2       99     0.000     0.000     0.000     0.000      107        0        0        0       14        1        1    19.881       97     40.0    7.957   -9.900     2.04    0.000    0.000       27        8     1993  Maize_Short_Soroca_7May_Optimum_26_MOHC.PRM
  Tot(14)        7        5     1994    261.0    521.2   1199.0   358.63      0.0    230.3     30.7     13.8      0.0    119.5       54    248.1    249.0       83     0.000     0.000     0.000     0.000      107        0        0        0       13        7       12    16.089       73     39.6    6.366   -9.900     1.73    0.000    0.000       27        8     1994  Maize_Short_Soroca_7May_Optimum_26_MOHC.PRM
  Tot(15)        7        5     1995    305.1    494.6   1256.9   360.62      0.0    274.9     30.2     13.8      0.0    116.1       57    305.4    304.4      100     0.000     0.000     0.000     0.000      107        0        0        0        8        3        0    22.157       96     40.1    8.884   -9.900     2.11    0.000    0.000       27        8     1995  Maize_Short_Soroca_7May_Optimum_26_MOHC.PRM
  Tot(16)        7        5     1996    285.8    501.1   1244.3   362.37      0.0    267.2     18.6      8.4      0.0     98.7       42    272.6    272.1      100     0.000     0.000     0.000     0.000      107        0        0        0       11        3        0    20.653       95     40.0    8.263   -9.900     2.23    0.000    0.000       27        8     1996  Maize_Short_Soroca_7May_Optimum_26_MOHC.PRM
  Tot(17)        7        5     1997    299.6    455.8   1162.2   363.47      0.0    285.4     14.2      0.0      0.0    100.3       49    256.7    256.6      100     0.000     0.000     0.000     0.000      107        0        0        0       14        2        0    21.442       96     40.0    8.577   -9.900     2.40    0.000    0.000       27        8     1997  Maize_Short_Soroca_7May_Optimum_26_MOHC.PRM
  Tot(18)        7        5     1998    308.7    445.2   1198.7   366.50      0.0    287.4     21.3      4.9      0.0    123.3       70    271.9    271.2      100     0.000     0.000     0.000     0.000      107        0        0        0       17        1        0    21.071       97     40.0    8.429   -9.900     2.13    0.000    0.000       27        8     1998  Maize_Short_Soroca_7May_Optimum_26_MOHC.PRM
  Tot(19)        7        5     1999    155.2    512.9   1310.0   368.14      0.0    155.2      0.0      0.0      0.0     95.6       41    266.2    267.5       90     0.000     0.000     0.000     0.000      107        0        0        0       10       13        7    18.819       81     40.4    7.610   -9.900     2.10    0.000    0.000       27        8     1999  Maize_Short_Soroca_7May_Optimum_26_MOHC.PRM
  Tot(20)        7        5     2000    240.2    521.6   1223.8   369.41      0.0    230.6      9.6      0.0      0.0     90.6       37    285.6    286.2      100     0.000     0.000     0.000     0.000      107        0        0        0       13        5        0    20.529       94     40.0    8.214   -9.900     2.18    0.000    0.000       27        8     2000  Maize_Short_Soroca_7May_Optimum_26_MOHC.PRM
  Tot(21)        7        5     2001    255.6    491.7   1222.5   371.07      0.0    247.3      8.3     18.7      0.0    121.2       66    307.8    306.8       97     0.000     0.000     0.000     0.000      107        0        0        0       16        1        3    21.609       94     40.0    8.639   -9.900     2.01    0.000    0.000       27        8     2001  Maize_Short_Soroca_7May_Optimum_26_MOHC.PRM
  Tot(22)        7        5     2002    365.4    509.4   1309.6   373.16      0.0    331.0     34.4      0.0      0.0    127.4       58    304.0    303.1       99     0.000     0.000     0.000     0.000      107        0        0        0       10       16        1    21.326       92     40.8    8.711   -9.900     2.02    0.000    0.000       27        8     2002  Maize_Short_Soroca_7May_Optimum_26_MOHC.PRM
  Tot(23)        7        5     2003    329.8    556.2   1316.9   375.80      0.0    274.8     55.0      3.2      0.0     87.3       30    282.5    281.0      100     0.000     0.000     0.000     0.000      107        0        0        0        7        9        0    20.739       91     40.0    8.296   -9.900     2.24    0.000    0.000       27        8     2003  Maize_Short_Soroca_7May_Optimum_26_MOHC.PRM
  Tot(24)        7        5     2004    239.4    487.9   1103.3   377.49      0.0    217.8     21.6      0.0      0.0     72.2       31    266.1    268.1      100     0.000     0.000     0.000     0.000      107        0        0        0       19       14        0    20.183       90     40.2    8.114   -9.900     2.40    0.000    0.000       27        8     2004  Maize_Short_Soroca_7May_Optimum_26_MOHC.PRM
  Tot(25)        7        5     2005    262.5    469.1   1193.2   379.80      0.0    243.3     19.2     22.7      0.0    108.8       56    282.0    281.1      100     0.000     0.000     0.000     0.000      107        0        0        0       11        4        0    21.900       96     40.1    8.782   -9.900     2.25    0.000    0.000       27        8     2005  Maize_Short_Soroca_7May_Optimum_26_MOHC.PRM
  Tot(26)        7        5     2006    315.6    495.5   1200.9   381.90      0.0    301.7     13.9     21.8      0.0    141.7       77    304.6    306.6       96     0.000     0.000     0.000     0.000      107        0        0        0       15        5        3    21.063       92     40.3    8.481   -9.900     1.90    0.000    0.000       27        8     2006  Maize_Short_Soroca_7May_Optimum_26_MOHC.PRM
  Tot(27)        7        5     2007    152.4    612.6   1444.4   383.77      0.0    152.1      0.3      0.0      0.0    125.1       36    232.9    233.0       83     0.000     0.000     0.000     0.000      107        0        0        0        3       24       12    14.395       61     40.4    5.816   -9.900     1.62    0.000    0.000       27        8     2007  Maize_Short_Soroca_7May_Optimum_26_MOHC.PRM
  Tot(28)        7        5     2008    341.8    530.8   1250.9   385.59      0.0    280.9     60.9      0.0      0.0    111.5       51    324.8    323.2       99     0.000     0.000     0.000     0.000      107        0        0        0        8       14        0    21.776       93     40.6    8.844   -9.900     2.03    0.000    0.000       27        8     2008  Maize_Short_Soroca_7May_Optimum_26_MOHC.PRM
  Tot(29)        7        5     2009    220.9    551.9   1276.6   387.37      0.0    219.1      1.8      1.4      0.0    136.6       60    298.5    299.9       89     0.000     0.000     0.000     0.000      107        0        0        0       11        4       10    19.274       83     39.9    7.685   -9.900     1.77    0.000    0.000       27        8     2009  Maize_Short_Soroca_7May_Optimum_26_MOHC.PRM
  Tot(30)        7        5     2010    341.4    489.0   1373.7   389.85      0.0    312.2     29.2     48.1      0.0    130.7       71    315.5    313.5       99     0.000     0.000     0.000     0.000      107        0        0        0        8        0        0    22.870       97     40.0    9.148   -9.900     2.05    0.000    0.000       27        8     2010  Maize_Short_Soroca_7May_Optimum_26_MOHC.PRM
  Tot(31)        7        5     2011    187.9    543.3   1287.2   391.63      0.0    185.0      2.9      1.0      0.0     95.4       38    289.1    290.0       96     0.000     0.000     0.000     0.000      107        0        0        0        8        5        3    20.520       90     40.1    8.220   -9.900     2.14    0.000    0.000       27        8     2011  Maize_Short_Soroca_7May_Optimum_26_MOHC.PRM
  Tot(32)        7        5     2012    144.1    600.6   1390.6   393.82      0.0    143.9      0.2      0.0      0.0    126.5       41    224.5    226.2       78     0.000     0.000     0.000     0.000      107        0        0        0        8       27       16    13.118       56     40.3    5.281   -9.900     1.50    0.000    0.000       27        8     2012  Maize_Short_Soroca_7May_Optimum_26_MOHC.PRM
  Tot(33)        7        5     2013    224.9    523.6   1339.0   396.48      0.0    216.4      8.5     10.5      0.0    145.5       69    271.1    270.5       85     0.000     0.000     0.000     0.000      107        0        0        0        6        4       11    19.039       80     39.5    7.526   -9.900     1.81    0.000    0.000       27        8     2013  Maize_Short_Soroca_7May_Optimum_26_MOHC.PRM
  Tot(34)        7        5     2014    310.9    505.5   1289.2   398.55      0.0    284.3     26.6     17.9      0.0    125.3       62    311.0    310.3      100     0.000     0.000     0.000     0.000      107        0        0        0        9        5        0    22.014       96     40.1    8.829   -9.900     2.02    0.000    0.000       27        8     2014  Maize_Short_Soroca_7May_Optimum_26_MOHC.PRM
  Tot(35)        7        5     2015     53.8    613.9   1324.9   401.00      0.0     53.8      0.0      0.2      0.0     81.0       23    188.9    190.7       77     0.000     0.000     0.000     0.000       98        0        0        0        8       27       19    11.268       48     35.0    3.944   -9.900     1.47    0.000    0.000       27        8     2015  Maize_Short_Soroca_7May_Optimum_26_MOHC.PRM
  Tot(36)        7        5     2016    260.0    524.9   1288.5   403.00      0.0    257.7      2.3      0.0      0.0    146.2       78    314.3    311.1       91     0.000     0.000     0.000     0.000      107        0        0        0       12        3        7    20.418       87     40.1    8.179   -9.900     1.78    0.000    0.000       27        8     2016  Maize_Short_Soroca_7May_Optimum_26_MOHC.PRM
  Tot(37)        7        5     2017    198.7    557.0   1274.9   405.00      0.0    197.7      1.0      0.3      0.0    125.5       55    288.9    291.2       86     0.000     0.000     0.000     0.000      107        0        0        0       10        8       10    19.036       81     40.0    7.608   -9.900     1.84    0.000    0.000       27        8     2017  Maize_Short_Soroca_7May_Optimum_26_MOHC.PRM
  Tot(38)        7        5     2018    243.9    523.5   1389.5   408.00      0.0    231.6     12.3      0.0      0.0     92.6       38    294.9    292.7      100     0.000     0.000     0.000     0.000      107        0        0        0        7        5        0    22.060       94     40.0    8.827   -9.900     2.28    0.000    0.000       27        8     2018  Maize_Short_Soroca_7May_Optimum_26_MOHC.PRM
  Tot(39)        7        5     2019    283.0    528.5   1353.3   410.00      0.0    260.1     22.9     36.0      0.0    154.5       77    289.8    292.1       87     0.000     0.000     0.000     0.000      107        0        0        0        4        5       10    19.756       84     39.9    7.882   -9.900     1.77    0.000    0.000       27        8     2019  Maize_Short_Soroca_7May_Optimum_26_MOHC.PRM
  Tot(40)        7        5     2020    118.0    668.3   1435.1   412.00      0.0    114.0      4.0      0.2      0.0    109.0       34    226.7    227.6       72     0.000     0.000     0.000     0.000       98        0        0        0       14       15       22    12.277       51     33.8    4.154   -9.900     1.24    0.000    0.000       27        8     2020  Maize_Short_Soroca_7May_Optimum_26_MOHC.PRM
  Tot(41)        7        5     2021    192.5    627.1   1458.6   414.00      0.0    165.7     26.8     16.0      0.0    137.2       41    202.2    201.7       73     0.000     0.000     0.000     0.000      107        0        0        0        6       27       18    11.136       46     40.1    4.461   -9.900     1.31    0.000    0.000       27        8     2021  Maize_Short_Soroca_7May_Optimum_26_MOHC.PRM
  Tot(42)        7        5     2022    199.2    632.5   1519.2   417.00      0.0    194.1      5.1      0.0      0.0    139.7       55    279.0    279.1       75     0.000     0.000     0.000     0.000      107        0        0        0        5       14       19    16.288       67     36.6    5.964   -9.900     1.42    0.000    0.000       27        8     2022  Maize_Short_Soroca_7May_Optimum_26_MOHC.PRM
  Tot(43)        7        5     2023     85.8    729.8   1593.0   419.00      0.0     85.7      0.1      0.0      0.0    111.3       26    187.6    188.0       71     0.000     0.000     0.000     0.000       91        0        0        0        4       27       22     9.975       41     27.4    2.730   -9.900     0.93    0.000    0.000       27        8     2023  Maize_Short_Soroca_7May_Optimum_26_MOHC.PRM
  Tot(44)        7        5     2024    217.1    566.2   1381.2   421.00      0.0    198.7     18.4     43.6      0.0    126.1       58    254.9    254.8       77     0.000     0.000     0.000     0.000      107        0        0        0        6        4       18    16.772       69     38.7    6.494   -9.900     1.70    0.000    0.000       27        8     2024  Maize_Short_Soroca_7May_Optimum_26_MOHC.PRM
  Tot(45)        7        5     2025    169.7    604.6   1309.1   423.00      0.0    142.9     26.8      0.0      0.0     99.0       30    174.8    174.9       69     0.000     0.000     0.000     0.000       88        0        0        0       16       28       21     9.225       40     24.5    2.261   -9.900     0.88    0.000    0.000       27        8     2025  Maize_Short_Soroca_7May_Optimum_26_MOHC.PRM
  Tot(46)        7        5     2026    100.0    696.0   1535.0   424.00      0.0     97.3      2.7      0.0      0.0     77.4       22    244.2    244.2       75     0.000     0.000     0.000     0.000      102        0        0        0        8       16       20    12.990       54     37.5    4.873   -9.900     1.52    0.000    0.000       27        8     2026  Maize_Short_Soroca_7May_Optimum_26_MOHC.PRM
  Tot(47)        7        5     2027     92.7    665.5   1509.6   426.00      0.0     91.9      0.8      0.0      0.0    111.3       32    192.6    192.6       70     0.000     0.000     0.000     0.000       90        0        0        0       10       24       22    10.319       42     26.7    2.752   -9.900     0.92    0.000    0.000       27        8     2027  Maize_Short_Soroca_7May_Optimum_26_MOHC.PRM
  Tot(48)        7        5     2028     90.1    712.2   1502.1   428.00      0.0     90.1      0.0      0.0      0.0    104.8       26    181.1    181.1       68     0.000     0.000     0.000     0.000       85        0        0        0        9       29       22     8.175       34     21.4    1.752   -9.900     0.63    0.000    0.000       27        8     2028  Maize_Short_Soroca_7May_Optimum_26_MOHC.PRM
  Tot(49)        7        5     2029    171.7    589.4   1427.0   429.00      0.0    149.2     22.5     40.3      0.0    104.3       43    226.4    226.4       73     0.000     0.000     0.000     0.000       99        0        0        0       11        9       21    13.621       56     34.9    4.754   -9.900     1.44    0.000    0.000       27        8     2029  Maize_Short_Soroca_7May_Optimum_26_MOHC.PRM
  Tot(50)        7        5     2030     53.6    763.8   1646.4   431.00      0.0     53.6      0.0      0.0      0.0     88.8       18    165.9    165.9       69     0.000     0.000     0.000     0.000       85        0        0        0        5       32       21     8.156       33     21.5    1.754   -9.900     0.70    0.000    0.000       27        8     2030  Maize_Short_Soroca_7May_Optimum_26_MOHC.PRM
  Tot(51)        7        5     2031    168.2    643.0   1499.2   432.00      0.0    163.3      4.9      0.0      0.0    119.3       42    271.6    271.4       75     0.000     0.000     0.000     0.000      107        0        0        0        7       15       20    15.494       63     38.5    5.964   -9.900     1.53    0.000    0.000       27        8     2031  Maize_Short_Soroca_7May_Optimum_26_MOHC.PRM
  Tot(52)        7        5     2032     95.5    738.4   1646.0   433.00      0.0     93.9      1.6      0.1      0.0    121.3       29    176.7    176.9       66     0.000     0.000     0.000     0.000       86        0        0        0        3       27       23     8.734       36     12.2    1.066   -9.900     0.36    0.000    0.000       27        8     2032  Maize_Short_Soroca_7May_Optimum_26_MOHC.PRM
  Tot(53)        7        5     2033    140.7    716.2   1646.8   435.00      0.0    140.2      0.5      0.0      0.0    143.3       38    198.5    198.5       66     0.000     0.000     0.000     0.000       91        0        0        0        1       21       23    10.582       44     27.3    2.886   -9.900     0.86    0.000    0.000       27        8     2033  Maize_Short_Soroca_7May_Optimum_26_MOHC.PRM
  Tot(54)        7        5     2034    297.3    494.6   1282.7   436.00      0.0    276.3     21.0     17.1      0.0    129.5       71    313.9    310.4       99     0.000     0.000     0.000     0.000      107        0        0        0       10        1        1    23.003       96     40.0    9.201   -9.900     2.08    0.000    0.000       27        8     2034  Maize_Short_Soroca_7May_Optimum_26_MOHC.PRM
  Tot(55)        7        5     2035    159.0    630.8   1476.2   437.00      0.0    154.9      4.1      9.9      0.0    134.7       46    231.4    235.0       73     0.000     0.000     0.000     0.000       98        0        0        0        3       19       21    12.960       53     34.2    4.428   -9.900     1.22    0.000    0.000       27        8     2035  Maize_Short_Soroca_7May_Optimum_26_MOHC.PRM
  Tot(56)        7        5     2036    110.6    726.0   1529.3   438.00      0.0    109.6      1.0      0.0      0.0    104.6       28    219.7    219.7       69     0.000     0.000     0.000     0.000       93        0        0        0        6       18       23    11.113       46     29.1    3.235   -9.900     1.03    0.000    0.000       27        8     2036  Maize_Short_Soroca_7May_Optimum_26_MOHC.PRM
  Tot(57)        7        5     2037     92.9    701.7   1574.6   438.00      0.0     92.9      0.0      0.0      0.0    116.7       29    183.6    183.6       71     0.000     0.000     0.000     0.000       88        0        0        0        4       28       21     9.323       38     24.7    2.300   -9.900     0.78    0.000    0.000       27        8     2037  Maize_Short_Soroca_7May_Optimum_26_MOHC.PRM
  Tot(58)        7        5     2038    263.1    513.5   1309.1   439.00      0.0    232.0     31.1     62.8      0.0    129.3       75    265.5    265.2       80     0.000     0.000     0.000     0.000      107        0        0        0       12        2       15    18.282       76     39.1    7.142   -9.900     1.81    0.000    0.000       27        8     2038  Maize_Short_Soroca_7May_Optimum_26_MOHC.PRM
  Tot(59)        7        5     2039     90.9    685.9   1574.2   440.00      0.0     90.6      0.3      0.0      0.0    114.9       30    175.4    175.8       69     0.000     0.000     0.000     0.000       86        0        0        0        4       28       22     8.996       37     22.5    2.026   -9.900     0.73    0.000    0.000       27        8     2039  Maize_Short_Soroca_7May_Optimum_26_MOHC.PRM
  Tot(60)        7        5     2040     48.4    701.3   1465.3   440.00      0.0     48.4      0.0      0.0      0.0     74.1       18    174.3    174.3       71     0.000     0.000     0.000     0.000       89        0        0        0        6       30       21     8.974       37     25.7    2.306   -9.900     0.95    0.000    0.000       27        8     2040  Maize_Short_Soroca_7May_Optimum_26_MOHC.PRM
  Tot(61)        7        5     2041     97.7    680.6   1475.0   441.00      0.0     97.6      0.1      0.0      0.0    108.1       30    204.4    204.4       72     0.000     0.000     0.000     0.000       92        0        0        0       12       23       21    10.893       44     28.4    3.096   -9.900     1.00    0.000    0.000       27        8     2041  Maize_Short_Soroca_7May_Optimum_26_MOHC.PRM
  Tot(62)        7        5     2042    266.7    532.6   1327.8   441.00      0.0    222.2     44.5     57.9      0.0    109.7       55    273.9    273.2       82     0.000     0.000     0.000     0.000      107        0        0        0       11       13       13    18.407       76     40.1    7.383   -9.900     1.92    0.000    0.000       27        8     2042  Maize_Short_Soroca_7May_Optimum_26_MOHC.PRM
  Tot(63)        7        5     2043    136.8    698.8   1620.3   441.00      0.0    134.0      2.8      0.1      0.0    145.0       40    209.8    210.5       69     0.000     0.000     0.000     0.000       95        0        0        0        3       18       22    11.732       48     30.9    3.625   -9.900     1.03    0.000    0.000       27        8     2043  Maize_Short_Soroca_7May_Optimum_26_MOHC.PRM
  Tot(64)        7        5     2044    252.2    574.9   1396.4   442.00      0.0    235.8     16.4     20.5      0.0    133.3       68    306.3    305.9       82     0.000     0.000     0.000     0.000      107        0        0        0        9        3       15    18.814       77     39.3    7.392   -9.900     1.68    0.000    0.000       27        8     2044  Maize_Short_Soroca_7May_Optimum_26_MOHC.PRM
  Tot(65)        7        5     2045    250.7    576.8   1412.1   442.00      0.0    215.0     35.7     57.6      0.0    140.8       61    238.1    238.5       74     0.000     0.000     0.000     0.000      106        0        0        0        3        7       20    15.510       63     38.8    6.016   -9.900     1.59    0.000    0.000       27        8     2045  Maize_Short_Soroca_7May_Optimum_26_MOHC.PRM
  Tot(66)        7        5     2046     60.1    800.1   1762.6   442.00      0.0     59.5      0.6      1.1      0.0     93.2       17    153.1    153.1       70     0.000     0.000     0.000     0.000       82        0        0        0        1       37       21     6.552       26      7.8    0.508   -9.900     0.21    0.000    0.000       27        8     2046  Maize_Short_Soroca_7May_Optimum_26_MOHC.PRM
  Tot(67)        7        5     2047    154.9    644.4   1502.1   442.00      0.0    151.7      3.2     10.1      0.0    129.6       44    236.3    236.3       74     0.000     0.000     0.000     0.000      100        0        0        0        8       12       21    13.714       56     35.6    4.884   -9.900     1.34    0.000    0.000       27        8     2047  Maize_Short_Soroca_7May_Optimum_26_MOHC.PRM
  Tot(68)        7        5     2048    208.9    546.4   1345.0   442.00      0.0    204.1      4.8      6.8      0.0    127.1       58    278.2    276.9       85     0.000     0.000     0.000     0.000      107        0        0        0        9        8       11    17.970       76     40.1    7.212   -9.900     1.78    0.000    0.000       27        8     2048  Maize_Short_Soroca_7May_Optimum_26_MOHC.PRM
  Tot(69)        7        5     2049    280.1    557.0   1462.6   443.00      0.0    259.4     20.7      0.0      0.0    112.4       48    323.2    323.5       96     0.000     0.000     0.000     0.000      107        0        0        0        5        6        2    21.552       90     40.1    8.647   -9.900     1.99    0.000    0.000       27        8     2049  Maize_Short_Soroca_7May_Optimum_26_MOHC.PRM
  Tot(70)        7        5     2050    182.8    598.4   1426.7   443.00      0.0    181.6      1.2      0.8      0.0    135.1       59    256.5    257.1       71     0.000     0.000     0.000     0.000      107        0        0        0       10        7       20    14.677       60     33.5    4.912   -9.900     1.25    0.000    0.000       27        8     2050  Maize_Short_Soroca_7May_Optimum_26_MOHC.PRM
  Tot(71)        7        5     2051    194.1    636.0   1526.3   443.00      0.0    189.5      4.6      9.6      0.0    136.1       53    268.5    268.8       76     0.000     0.000     0.000     0.000      104        0        0        0        7        5       21    15.182       62     38.3    5.811   -9.900     1.44    0.000    0.000       27        8     2051  Maize_Short_Soroca_7May_Optimum_26_MOHC.PRM
  Tot(72)        7        5     2052    177.3    581.0   1477.3   443.00      0.0    177.0      0.3      0.0      0.0    125.3       55    275.8    275.6       81     0.000     0.000     0.000     0.000      107        0        0        0        6       10       17    17.045       69     39.3    6.699   -9.900     1.67    0.000    0.000       27        8     2052  Maize_Short_Soroca_7May_Optimum_26_MOHC.PRM
  Tot(73)        7        5     2053    134.3    625.8   1534.4   443.00      0.0    134.3      0.0      0.0      0.0    131.4       44    225.3    225.4       71     0.000     0.000     0.000     0.000      104        0        0        0        4       15       23    13.808       57     38.6    5.328   -9.900     1.50    0.000    0.000       27        8     2053  Maize_Short_Soroca_7May_Optimum_26_MOHC.PRM
  Tot(74)        7        5     2054    190.8    561.0   1436.0   443.00      0.0    176.6     14.2     22.6      0.0    144.3       59    229.0    228.7       75     0.000     0.000     0.000     0.000      107        0        0        0        3       15       20    15.149       62     39.8    6.025   -9.900     1.61    0.000    0.000       27        8     2054  Maize_Short_Soroca_7May_Optimum_26_MOHC.PRM
  Tot(75)        7        5     2055    170.9    592.9   1442.2   443.00      0.0    160.4     10.5     28.0      0.0    127.5       45    218.5    218.3       73     0.000     0.000     0.000     0.000      107        0        0        0       10       27       20    13.347       54     39.9    5.319   -9.900     1.54    0.000    0.000       27        8     2055  Maize_Short_Soroca_7May_Optimum_26_MOHC.PRM
  Tot(76)        7        5     2056    153.5    647.7   1502.1   442.00      0.0    148.3      5.2      0.0      0.0    108.3       39    247.0    247.6       73     0.000     0.000     0.000     0.000      102        0        0        0        3        9       21    14.473       59     37.2    5.387   -9.900     1.54    0.000    0.000       27        8     2056  Maize_Short_Soroca_7May_Optimum_26_MOHC.PRM
  Tot(77)        7        5     2057    182.9    649.5   1512.6   442.00      0.0    176.2      6.7      5.6      0.0    115.8       47    283.6    283.2       71     0.000     0.000     0.000     0.000      107        0        0        0        9        4       20    16.672       68     38.5    6.417   -9.900     1.61    0.000    0.000       27        8     2057  Maize_Short_Soroca_7May_Optimum_26_MOHC.PRM
  Tot(78)        7        5     2058     97.4    650.5   1497.0   442.00      0.0     91.2      6.2     11.2      0.0     93.0       29    207.9    208.2       69     0.000     0.000     0.000     0.000      105        0        0        0        8       27       26    11.595       47     39.1    4.533   -9.900     1.51    0.000    0.000       27        8     2058  Maize_Short_Soroca_7May_Optimum_26_MOHC.PRM
  Tot(79)        7        5     2059    174.3    619.7   1502.1   442.00      0.0    168.9      5.4      1.9      0.0    124.8       42    254.6    253.7       76     0.000     0.000     0.000     0.000      107        0        0        0        8       28       16    14.788       61     40.3    5.957   -9.900     1.57    0.000    0.000       27        8     2059  Maize_Short_Soroca_7May_Optimum_26_MOHC.PRM
  Tot(80)        7        5     2060    227.9    556.1   1362.5   442.00      0.0    192.0     35.9     65.7      0.0    114.6       56    239.8    240.6       72     0.000     0.000     0.000     0.000      107        0        0        0       11       12       23    15.161       62     38.6    5.854   -9.900     1.65    0.000    0.000       27        8     2060  Maize_Short_Soroca_7May_Optimum_26_MOHC.PRM
  Tot(81)        7        5     2061    246.9    594.0   1438.8   441.00      0.0    186.0     60.9     72.9      0.0    111.9       42    223.8    223.9       75     0.000     0.000     0.000     0.000      101        0        0        0        9       10       21    14.069       58     36.9    5.187   -9.900     1.57    0.000    0.000       27        8     2061  Maize_Short_Soroca_7May_Optimum_26_MOHC.PRM
  Tot(82)        7        5     2062    153.6    615.4   1466.2   441.00      0.0    152.6      1.0      0.0      0.0    112.5       41    259.1    258.3       75     0.000     0.000     0.000     0.000      107        0        0        0        6       19       18    15.714       64     40.1    6.296   -9.900     1.69    0.000    0.000       27        8     2062  Maize_Short_Soroca_7May_Optimum_26_MOHC.PRM
  Tot(83)        7        5     2063    167.9    592.9   1463.1   441.00      0.0    162.6      5.3     20.7      0.0    130.1       51    223.0    223.7       71     0.000     0.000     0.000     0.000       98        0        0        0        9       15       22    13.134       54     33.8    4.436   -9.900     1.28    0.000    0.000       27        8     2063  Maize_Short_Soroca_7May_Optimum_26_MOHC.PRM
  Tot(84)        7        5     2064    171.2    650.8   1535.8   440.00      0.0    163.9      7.3      1.4      0.0    122.8       39    205.9    205.9       68     0.000     0.000     0.000     0.000       94        0        0        0        4       17       23    11.791       48     29.9    3.522   -9.900     1.10    0.000    0.000       27        8     2064  Maize_Short_Soroca_7May_Optimum_26_MOHC.PRM
  Tot(85)        7        5     2065     84.3    686.6   1540.6   440.00      0.0     84.2      0.1      0.0      0.0    112.2       26    168.6    168.6       70     0.000     0.000     0.000     0.000       86        0        0        0        2       32       21     7.907       32     22.8    1.799   -9.900     0.67    0.000    0.000       27        8     2065  Maize_Short_Soroca_7May_Optimum_26_MOHC.PRM
  Tot(86)        7        5     2066    271.4    582.8   1442.4   440.00      0.0    231.4     40.0      2.7      0.0    124.8       52    274.8    273.1       80     0.000     0.000     0.000     0.000      107        0        0        0        5        9       13    17.159       71     39.6    6.793   -9.900     1.70    0.000    0.000       27        8     2066  Maize_Short_Soroca_7May_Optimum_26_MOHC.PRM
  Tot(87)        7        5     2067    190.7    588.6   1362.0   439.00      0.0    177.9     12.8      0.0      0.0    142.6       48    195.8    197.1       72     0.000     0.000     0.000     0.000      107        0        0        0        8       25       16    11.061       46     39.9    4.416   -9.900     1.30    0.000    0.000       27        8     2067  Maize_Short_Soroca_7May_Optimum_26_MOHC.PRM
  Tot(88)        7        5     2068    250.0    524.9   1287.3   439.00      0.0    237.3     12.7      5.4      0.0    111.1       53    314.6    313.5       96     0.000     0.000     0.000     0.000      107        0        0        0       10        2        3    22.126       92     40.1    8.865   -9.900     2.08    0.000    0.000       27        8     2068  Maize_Short_Soroca_7May_Optimum_26_MOHC.PRM
  Tot(89)        7        5     2069    111.0    608.4   1479.9   438.00      0.0    110.5      0.5      1.5      0.0    119.9       39    201.2    202.2       72     0.000     0.000     0.000     0.000      107        0        0        0        6       25       23    11.971       49     40.0    4.786   -9.900     1.49    0.000    0.000       27        8     2069  Maize_Short_Soroca_7May_Optimum_26_MOHC.PRM
  Tot(90)        7        5     2070    258.4    529.0   1332.9   437.00      0.0    221.0     37.4     64.8      0.0    108.9       52    246.9    246.4       79     0.000     0.000     0.000     0.000      107        0        0        0       12       11       15    15.813       66     39.8    6.290   -9.900     1.77    0.000    0.000       27        8     2070  Maize_Short_Soroca_7May_Optimum_26_MOHC.PRM
  Tot(91)        7        5     2071     87.4    599.7   1410.7   437.00      0.0     87.2      0.2      0.0      0.0    105.4       32    194.7    195.6       75     0.000     0.000     0.000     0.000       97        0        0        0        6       25       19    11.698       49     33.9    3.971   -9.900     1.34    0.000    0.000       27        8     2071  Maize_Short_Soroca_7May_Optimum_26_MOHC.PRM
  Tot(92)        7        5     2072     89.1    584.4   1335.0   436.00      0.0     84.1      5.0     11.5      0.0     88.4       32    200.4    200.1       70     0.000     0.000     0.000     0.000      107        0        0        0       10       26       23    12.083       50     39.9    4.818   -9.900     1.67    0.000    0.000       27        8     2072  Maize_Short_Soroca_7May_Optimum_26_MOHC.PRM
  Tot(93)        7        5     2073    109.5    689.2   1610.0   436.00      0.0    107.9      1.6      0.0      0.0    132.6       33    180.5    180.7       72     0.000     0.000     0.000     0.000       88        0        0        0        1       28       21     9.472       38     25.1    2.376   -9.900     0.77    0.000    0.000       27        8     2073  Maize_Short_Soroca_7May_Optimum_26_MOHC.PRM
  Tot(94)        7        5     2074    151.5    570.9   1257.6   435.00      0.0    148.5      3.0      5.2      0.0    119.8       55    250.1    250.0       76     0.000     0.000     0.000     0.000      107        0        0        0       17       10       19    15.644       66     39.0    6.107   -9.900     1.65    0.000    0.000       27        8     2074  Maize_Short_Soroca_7May_Optimum_26_MOHC.PRM
  Tot(95)        7        5     2075    202.2    545.1   1385.7   435.00      0.0    189.0     13.2     19.1      0.0    136.9       68    252.3    251.7       76     0.000     0.000     0.000     0.000      107        0        0        0        8        6       17    16.790       70     39.1    6.573   -9.900     1.69    0.000    0.000       27        8     2075  Maize_Short_Soroca_7May_Optimum_26_MOHC.PRM
  Tot(96)        7        5     2076    110.4    696.8   1605.1   434.00      0.0    109.8      0.6      0.0      0.0    125.4       33    196.3    196.8       72     0.000     0.000     0.000     0.000       91        0        0        0        5       26       22    10.434       42     27.5    2.866   -9.900     0.90    0.000    0.000       27        8     2076  Maize_Short_Soroca_7May_Optimum_26_MOHC.PRM
  Tot(97)        7        5     2077     97.6    711.1   1509.0   433.00      0.0     97.6      0.0      0.0      0.0    126.1       30    172.5    172.5       70     0.000     0.000     0.000     0.000       86        0        0        0        5       30       22     8.455       35     22.6    1.913   -9.900     0.65    0.000    0.000       27        8     2077  Maize_Short_Soroca_7May_Optimum_26_MOHC.PRM
  Tot(98)        7        5     2078    201.6    589.2   1509.9   433.00      0.0    196.5      5.1     10.4      0.0    152.5       68    262.7    262.5       74     0.000     0.000     0.000     0.000      107        0        0        0        4        9       21    16.421       67     38.6    6.332   -9.900     1.52    0.000    0.000       27        8     2078  Maize_Short_Soroca_7May_Optimum_26_MOHC.PRM
  Tot(99)        7        5     2079    106.4    609.7   1416.7   432.00      0.0    106.0      0.4      0.0      0.0    100.7       37    229.4    229.6       74     0.000     0.000     0.000     0.000      102        0        0        0       10       13       21    13.807       57     37.7    5.206   -9.900     1.59    0.000    0.000       27        8     2079  Maize_Short_Soroca_7May_Optimum_26_MOHC.PRM
 Tot(100)        7        5     2080    149.3    617.9   1415.8   432.00      0.0    135.8     13.5     18.8      0.0    116.3       41    221.7    221.7       72     0.000     0.000     0.000     0.000       97        0        0        0        9       16       22    12.697       52     33.1    4.199   -9.900     1.26    0.000    0.000       27        8     2080  Maize_Short_Soroca_7May_Optimum_26_MOHC.PRM
 Tot(101)        7        5     2081    105.0    704.0   1626.0   431.00      0.0    103.9      1.1      0.1      0.0    121.1       30    183.9    183.9       69     0.000     0.000     0.000     0.000       88        0        0        0        2       27       22     9.577       39     24.8    2.374   -9.900     0.80    0.000    0.000       27        8     2081  Maize_Short_Soroca_7May_Optimum_26_MOHC.PRM
 Tot(102)        7        5     2082    135.8    708.3   1612.6   431.00      0.0    124.9     10.9     24.6      0.0    127.6       31    183.7    183.7       71     0.000     0.000     0.000     0.000       89        0        0        0        5       28       21     9.927       40     25.8    2.564   -9.900     0.83    0.000    0.000       27        8     2082  Maize_Short_Soroca_7May_Optimum_26_MOHC.PRM
 Tot(103)        7        5     2083    175.0    641.2   1468.7   430.00      0.0    167.6      7.4     21.4      0.0    140.4       44    205.6    205.6       70     0.000     0.000     0.000     0.000       92        0        0        0        8       19       22    10.991       45     28.2    3.104   -9.900     0.94    0.000    0.000       27        8     2083  Maize_Short_Soroca_7May_Optimum_26_MOHC.PRM
 Tot(104)        7        5     2084    140.3    662.8   1554.2   429.00      0.0    136.4      3.9      6.6      0.0    124.8       40    223.5    223.5       71     0.000     0.000     0.000     0.000       95        0        0        0        7       17       22    12.012       49     30.9    3.713   -9.900     1.08    0.000    0.000       27        8     2084  Maize_Short_Soroca_7May_Optimum_26_MOHC.PRM
 Tot(105)        7        5     2085    131.8    633.0   1482.7   429.00      0.0    129.9      1.9      1.1      0.0    134.4       46    215.6    215.6       69     0.000     0.000     0.000     0.000      102        0        0        0        7       20       25    12.278       50     37.9    4.657   -9.900     1.34    0.000    0.000       27        8     2085  Maize_Short_Soroca_7May_Optimum_26_MOHC.PRM
 Tot(106)        7        5     2086    134.4    610.2   1422.7   428.00      0.0    132.1      2.3      0.0      0.0    103.9       37    247.1    246.8       76     0.000     0.000     0.000     0.000      107        0        0        0        7       11       17    15.158       62     39.0    5.909   -9.900     1.68    0.000    0.000       27        8     2086  Maize_Short_Soroca_7May_Optimum_26_MOHC.PRM
 Tot(107)        7        5     2087    193.7    659.5   1607.1   428.00      0.0    180.3     13.4     12.4      0.0    132.5       36    236.8    236.6       77     0.000     0.000     0.000     0.000      107        0        0        0        2       29       17    13.068       54     39.7    5.183   -9.900     1.40    0.000    0.000       27        8     2087  Maize_Short_Soroca_7May_Optimum_26_MOHC.PRM
 Tot(108)        7        5     2088    260.9    551.5   1348.7   427.00      0.0    238.8     22.1     28.9      0.0    134.0       69    271.3    271.2       77     0.000     0.000     0.000     0.000      107        0        0        0       14        5       15    16.690       71     38.7    6.461   -9.900     1.59    0.000    0.000       27        8     2088  Maize_Short_Soroca_7May_Optimum_26_MOHC.PRM
 Tot(109)        7        5     2089    237.9    569.6   1463.6   427.00      0.0    233.9      4.0      0.0      0.0    153.4       62    287.9    286.9       86     0.000     0.000     0.000     0.000      107        0        0        0        3        8       12    18.599       76     39.6    7.365   -9.900     1.67    0.000    0.000       27        8     2089  Maize_Short_Soroca_7May_Optimum_26_MOHC.PRM
 Tot(110)        7        5     2090    136.3    695.6   1643.8   426.00      0.0    136.1      0.2      0.0      0.0    141.6       35    193.4    195.0       73     0.000     0.000     0.000     0.000       90        0        0        0        5       26       21    10.030       41     27.0    2.711   -9.900     0.83    0.000    0.000       27        8     2090  Maize_Short_Soroca_7May_Optimum_26_MOHC.PRM
 Tot(111)        7        5     2091    231.1    524.8   1394.7   425.00      0.0    227.6      3.5      3.4      0.0    122.5       51    274.7    273.6       91     0.000     0.000     0.000     0.000      107        0        0        0        6       18        6    19.550       81     40.7    7.950   -9.900     2.00    0.000    0.000       27        8     2091  Maize_Short_Soroca_7May_Optimum_26_MOHC.PRM
 Tot(112)        7        5     2092    114.9    564.5   1335.1   425.00      0.0    112.7      2.2      7.7      0.0    100.8       44    230.1    231.2       75     0.000     0.000     0.000     0.000      106        0        0        0       14        8       21    15.128       63     38.5    5.830   -9.900     1.76    0.000    0.000       27        8     2092  Maize_Short_Soroca_7May_Optimum_26_MOHC.PRM
 Tot(113)        7        5     2093    132.8    603.0   1457.6   424.00      0.0    131.8      1.0      0.4      0.0    131.1       53    227.8    227.8       69     0.000     0.000     0.000     0.000      104        0        0        0        9       12       24    14.024       58     38.0    5.333   -9.900     1.49    0.000    0.000       27        8     2093  Maize_Short_Soroca_7May_Optimum_26_MOHC.PRM
 Tot(114)        7        5     2094    103.9    582.3   1375.1   424.00      0.0    103.1      0.8      1.7      0.0    103.7       40    220.5    220.5       76     0.000     0.000     0.000     0.000      101        0        0        0       11       14       21    13.625       57     37.0    5.039   -9.900     1.56    0.000    0.000       27        8     2094  Maize_Short_Soroca_7May_Optimum_26_MOHC.PRM
 Tot(115)        7        5     2095    112.4    673.8   1513.4   423.00      0.0    111.9      0.5      0.0      0.0    114.8       36    217.9    217.9       70     0.000     0.000     0.000     0.000       95        0        0        0       10       16       22    12.036       49     31.1    3.744   -9.900     1.13    0.000    0.000       27        8     2095  Maize_Short_Soroca_7May_Optimum_26_MOHC.PRM
 Tot(116)        7        5     2096    109.1    658.8   1573.1   423.00      0.0    109.1      0.0      0.0      0.0    130.8       32    172.6    172.6       74     0.000     0.000     0.000     0.000       92        0        0        0        2       31       19     9.259       38     29.0    2.686   -9.900     0.91    0.000    0.000       27        8     2096  Maize_Short_Soroca_7May_Optimum_26_MOHC.PRM
 Tot(117)        7        5     2097    182.8    557.7   1435.3   422.00      0.0    180.6      2.2      6.9      0.0    126.4       62    274.3    274.0       78     0.000     0.000     0.000     0.000      107        0        0        0        7        8       16    17.822       73     39.2    6.981   -9.900     1.74    0.000    0.000       27        8     2097  Maize_Short_Soroca_7May_Optimum_26_MOHC.PRM
 Tot(118)        7        5     2098    104.8    579.2   1269.1   422.00      0.0    103.7      1.1      2.7      0.0    113.0       43    212.3    212.6       71     0.000     0.000     0.000     0.000      107        0        0        0       14       24       24    13.228       55     39.3    5.197   -9.900     1.60    0.000    0.000       27        8     2098  Maize_Short_Soroca_7May_Optimum_26_MOHC.PRM
 Tot(119)        7        5     2099     49.4    770.9   1611.0   421.00      0.0     49.3      0.1      0.0      0.0     86.1       17    159.1    159.2       71     0.000     0.000     0.000     0.000       84        0        0        0       10       35       20     7.384       30     20.7    1.531   -9.900     0.63    0.000    0.000       27        8     2099  Maize_Short_Soroca_7May_Optimum_26_MOHC.PRM
