AquaCrop 7.0 (August 2022) - Output created on (date) : 24-11-2022   at (time) : 10:37:03

    RunNr     Day1   Month1    Year1     Rain      ETo       GD     CO2      Irri   Infilt   Runoff    Drain   Upflow        E     E/Ex       Tr      TrW   Tr/Trx    SaltIn   SaltOut    SaltUp  SaltProf     Cycle   SaltStr  FertStr  WeedStr  TempStr   ExpStr   StoStr  BioMass  Brelative   HI    Y(dry)  Y(fresh)    WPet      Bin     Bout     DayN   MonthN    YearN
                                           mm       mm  degC.day    ppm        mm       mm       mm       mm       mm       mm        %       mm       mm        %    ton/ha    ton/ha    ton/ha    ton/ha      days       %        %        %        %        %        %    ton/ha        %       %    ton/ha   ton/ha    kg/m3   ton/ha   ton/ha
   Tot(1)        7        5     1981    330.3    462.9   1198.4   340.11      0.0    283.1     47.2     56.3      0.0    109.4       56    275.1    275.5      100     0.000     0.000     0.000     0.000      107        0        0        0       13        1        0    20.792       97     40.0    8.317   -9.900     2.16    0.000    0.000       27        8     1981  Maize_Short_Soroca_7May_Optimum_85_MPI.PRM
   Tot(2)        7        5     1982    276.4    461.1   1144.9   341.22      0.0    241.0     35.4     37.5      0.0     91.0       42    247.8    245.9      100     0.000     0.000     0.000     0.000      107        0        0        0       15        2        0    20.015       96     40.0    8.006   -9.900     2.36    0.000    0.000       27        8     1982  Maize_Short_Soroca_7May_Optimum_85_MPI.PRM
   Tot(3)        7        5     1983    225.7    446.3   1210.8   342.84      0.0    220.5      5.2      1.0      0.0     89.5       45    244.5    245.0      100     0.000     0.000     0.000     0.000      107        0        0        0        9        2        0    20.424       96     40.0    8.174   -9.900     2.45    0.000    0.000       27        8     1983  Maize_Short_Soroca_7May_Optimum_85_MPI.PRM
   Tot(4)        7        5     1984    347.7    420.8   1026.2   344.40      0.0    328.6     19.1     25.4      0.0    144.0       85    231.4    232.8      100     0.000     0.000     0.000     0.000      107        0        0        0       20        0        0    19.009       98     40.0    7.604   -9.900     2.03    0.000    0.000       27        8     1984  Maize_Short_Soroca_7May_Optimum_85_MPI.PRM
   Tot(5)        7        5     1985    364.9    454.7   1143.8   345.87      0.0    324.5     40.4     56.7      0.0    131.4       68    253.5    250.6      100     0.000     0.000     0.000     0.000      107        0        0        0       15        0        0    19.959       98     40.0    7.984   -9.900     2.07    0.000    0.000       27        8     1985  Maize_Short_Soroca_7May_Optimum_85_MPI.PRM
   Tot(6)        7        5     1986    164.7    525.3   1219.4   347.19      0.0    164.3      0.4      0.0      0.0     97.0       40    259.0    260.2       92     0.000     0.000     0.000     0.000      107        0        0        0       12        8        5    17.926       86     40.0    7.177   -9.900     2.02    0.000    0.000       27        8     1986  Maize_Short_Soroca_7May_Optimum_85_MPI.PRM
   Tot(7)        7        5     1987    273.7    465.1   1100.2   348.98      0.0    263.6     10.1     12.9      0.0    131.5       71    274.3    273.3      100     0.000     0.000     0.000     0.000      107        0        0        0       19        6        0    19.794       96     40.4    8.000   -9.900     1.97    0.000    0.000       27        8     1987  Maize_Short_Soroca_7May_Optimum_85_MPI.PRM
   Tot(8)        7        5     1988    304.7    440.0   1217.4   351.45      0.0    290.1     14.6     30.8      0.0    131.0       80    283.6    287.0      100     0.000     0.000     0.000     0.000      107        0        0        0       10        1        0    21.617       98     40.0    8.653   -9.900     2.09    0.000    0.000       27        8     1988  Maize_Short_Soroca_7May_Optimum_85_MPI.PRM
   Tot(9)        7        5     1989    282.2    464.6   1130.1   352.89      0.0    262.4     19.8     25.4      0.0    101.1       53    275.0    273.7      100     0.000     0.000     0.000     0.000      107        0        0        0       15        2        0    20.739       97     40.1    8.313   -9.900     2.21    0.000    0.000       27        8     1989  Maize_Short_Soroca_7May_Optimum_85_MPI.PRM
  Tot(10)        7        5     1990    185.9    477.8   1101.1   354.16      0.0    184.2      1.7      2.5      0.0    113.8       58    266.9    266.9       95     0.000     0.000     0.000     0.000      107        0        0        0       18        3        4    19.765       91     40.0    7.913   -9.900     2.08    0.000    0.000       27        8     1990  Maize_Short_Soroca_7May_Optimum_85_MPI.PRM
  Tot(11)        7        5     1991    456.1    412.7   1129.9   355.48      0.0    403.6     52.5     46.9      0.0    128.5       85    271.1    271.6      100     0.000     0.000     0.000     0.000      107        0        0        0       20        0        0    22.044       98     40.0    8.819   -9.900     2.21    0.000    0.000       27        8     1991  Maize_Short_Soroca_7May_Optimum_85_MPI.PRM
  Tot(12)        7        5     1992    184.4    507.5   1204.4   356.27      0.0    182.6      1.8      4.3      0.0    130.3       69    268.1    268.2       83     0.000     0.000     0.000     0.000      107        0        0        0       16        5       12    17.662       78     39.7    7.016   -9.900     1.76    0.000    0.000       27        8     1992  Maize_Short_Soroca_7May_Optimum_85_MPI.PRM
  Tot(13)        7        5     1993    225.5    480.7   1127.5   356.95      0.0    219.8      5.7      9.9      0.0    124.3       62    266.5    266.2       99     0.000     0.000     0.000     0.000      107        0        0        0       14        1        1    19.881       97     40.0    7.957   -9.900     2.04    0.000    0.000       27        8     1993  Maize_Short_Soroca_7May_Optimum_85_MPI.PRM
  Tot(14)        7        5     1994    261.0    521.2   1199.0   358.63      0.0    230.3     30.7     13.8      0.0    119.5       54    248.1    249.0       83     0.000     0.000     0.000     0.000      107        0        0        0       13        7       12    16.089       73     39.6    6.366   -9.900     1.73    0.000    0.000       27        8     1994  Maize_Short_Soroca_7May_Optimum_85_MPI.PRM
  Tot(15)        7        5     1995    305.1    494.6   1256.9   360.62      0.0    274.9     30.2     13.8      0.0    116.1       57    305.4    304.4      100     0.000     0.000     0.000     0.000      107        0        0        0        8        3        0    22.157       96     40.1    8.884   -9.900     2.11    0.000    0.000       27        8     1995  Maize_Short_Soroca_7May_Optimum_85_MPI.PRM
  Tot(16)        7        5     1996    285.8    501.1   1244.3   362.37      0.0    267.2     18.6      8.4      0.0     98.7       42    272.6    272.1      100     0.000     0.000     0.000     0.000      107        0        0        0       11        3        0    20.653       95     40.0    8.263   -9.900     2.23    0.000    0.000       27        8     1996  Maize_Short_Soroca_7May_Optimum_85_MPI.PRM
  Tot(17)        7        5     1997    299.6    455.8   1162.2   363.47      0.0    285.4     14.2      0.0      0.0    100.3       49    256.7    256.6      100     0.000     0.000     0.000     0.000      107        0        0        0       14        2        0    21.442       96     40.0    8.577   -9.900     2.40    0.000    0.000       27        8     1997  Maize_Short_Soroca_7May_Optimum_85_MPI.PRM
  Tot(18)        7        5     1998    308.7    445.2   1198.7   366.50      0.0    287.4     21.3      4.9      0.0    123.3       70    271.9    271.2      100     0.000     0.000     0.000     0.000      107        0        0        0       17        1        0    21.071       97     40.0    8.429   -9.900     2.13    0.000    0.000       27        8     1998  Maize_Short_Soroca_7May_Optimum_85_MPI.PRM
  Tot(19)        7        5     1999    155.2    512.9   1310.0   368.14      0.0    155.2      0.0      0.0      0.0     95.6       41    266.2    267.5       90     0.000     0.000     0.000     0.000      107        0        0        0       10       13        7    18.819       81     40.4    7.610   -9.900     2.10    0.000    0.000       27        8     1999  Maize_Short_Soroca_7May_Optimum_85_MPI.PRM
  Tot(20)        7        5     2000    240.2    521.6   1223.8   369.41      0.0    230.6      9.6      0.0      0.0     90.6       37    285.6    286.2      100     0.000     0.000     0.000     0.000      107        0        0        0       13        5        0    20.529       94     40.0    8.214   -9.900     2.18    0.000    0.000       27        8     2000  Maize_Short_Soroca_7May_Optimum_85_MPI.PRM
  Tot(21)        7        5     2001    255.6    491.7   1222.5   371.07      0.0    247.3      8.3     18.7      0.0    121.2       66    307.8    306.8       97     0.000     0.000     0.000     0.000      107        0        0        0       16        1        3    21.609       94     40.0    8.639   -9.900     2.01    0.000    0.000       27        8     2001  Maize_Short_Soroca_7May_Optimum_85_MPI.PRM
  Tot(22)        7        5     2002    365.4    509.4   1309.6   373.16      0.0    331.0     34.4      0.0      0.0    127.4       58    304.0    303.1       99     0.000     0.000     0.000     0.000      107        0        0        0       10       16        1    21.326       92     40.8    8.711   -9.900     2.02    0.000    0.000       27        8     2002  Maize_Short_Soroca_7May_Optimum_85_MPI.PRM
  Tot(23)        7        5     2003    329.8    556.2   1316.9   375.80      0.0    274.8     55.0      3.2      0.0     87.3       30    282.5    281.0      100     0.000     0.000     0.000     0.000      107        0        0        0        7        9        0    20.739       91     40.0    8.296   -9.900     2.24    0.000    0.000       27        8     2003  Maize_Short_Soroca_7May_Optimum_85_MPI.PRM
  Tot(24)        7        5     2004    239.4    487.9   1103.3   377.49      0.0    217.8     21.6      0.0      0.0     72.2       31    266.1    268.1      100     0.000     0.000     0.000     0.000      107        0        0        0       19       14        0    20.183       90     40.2    8.114   -9.900     2.40    0.000    0.000       27        8     2004  Maize_Short_Soroca_7May_Optimum_85_MPI.PRM
  Tot(25)        7        5     2005    262.5    469.1   1193.2   379.80      0.0    243.3     19.2     22.7      0.0    108.8       56    282.0    281.1      100     0.000     0.000     0.000     0.000      107        0        0        0       11        4        0    21.900       96     40.1    8.782   -9.900     2.25    0.000    0.000       27        8     2005  Maize_Short_Soroca_7May_Optimum_85_MPI.PRM
  Tot(26)        7        5     2006    315.6    495.5   1200.9   381.90      0.0    301.7     13.9     21.8      0.0    141.7       77    304.6    306.6       96     0.000     0.000     0.000     0.000      107        0        0        0       15        5        3    21.063       92     40.3    8.481   -9.900     1.90    0.000    0.000       27        8     2006  Maize_Short_Soroca_7May_Optimum_85_MPI.PRM
  Tot(27)        7        5     2007    152.4    612.6   1444.4   383.77      0.0    152.1      0.3      0.0      0.0    125.1       36    232.9    233.0       83     0.000     0.000     0.000     0.000      107        0        0        0        3       24       12    14.395       61     40.4    5.816   -9.900     1.62    0.000    0.000       27        8     2007  Maize_Short_Soroca_7May_Optimum_85_MPI.PRM
  Tot(28)        7        5     2008    341.8    530.8   1250.9   385.59      0.0    280.9     60.9      0.0      0.0    111.5       51    324.8    323.2       99     0.000     0.000     0.000     0.000      107        0        0        0        8       14        0    21.776       93     40.6    8.844   -9.900     2.03    0.000    0.000       27        8     2008  Maize_Short_Soroca_7May_Optimum_85_MPI.PRM
  Tot(29)        7        5     2009    220.9    551.9   1276.6   387.37      0.0    219.1      1.8      1.4      0.0    136.6       60    298.5    299.9       89     0.000     0.000     0.000     0.000      107        0        0        0       11        4       10    19.274       83     39.9    7.685   -9.900     1.77    0.000    0.000       27        8     2009  Maize_Short_Soroca_7May_Optimum_85_MPI.PRM
  Tot(30)        7        5     2010    341.4    489.0   1373.7   389.85      0.0    312.2     29.2     48.1      0.0    130.7       71    315.5    313.5       99     0.000     0.000     0.000     0.000      107        0        0        0        8        0        0    22.870       97     40.0    9.148   -9.900     2.05    0.000    0.000       27        8     2010  Maize_Short_Soroca_7May_Optimum_85_MPI.PRM
  Tot(31)        7        5     2011    187.9    543.3   1287.2   391.63      0.0    185.0      2.9      1.0      0.0     95.4       38    289.1    290.0       96     0.000     0.000     0.000     0.000      107        0        0        0        8        5        3    20.520       90     40.1    8.220   -9.900     2.14    0.000    0.000       27        8     2011  Maize_Short_Soroca_7May_Optimum_85_MPI.PRM
  Tot(32)        7        5     2012    144.1    600.6   1390.6   393.82      0.0    143.9      0.2      0.0      0.0    126.5       41    224.5    226.2       78     0.000     0.000     0.000     0.000      107        0        0        0        8       27       16    13.118       56     40.3    5.281   -9.900     1.50    0.000    0.000       27        8     2012  Maize_Short_Soroca_7May_Optimum_85_MPI.PRM
  Tot(33)        7        5     2013    224.9    523.6   1339.0   396.48      0.0    216.4      8.5     10.5      0.0    145.5       69    271.1    270.5       85     0.000     0.000     0.000     0.000      107        0        0        0        6        4       11    19.039       80     39.5    7.526   -9.900     1.81    0.000    0.000       27        8     2013  Maize_Short_Soroca_7May_Optimum_85_MPI.PRM
  Tot(34)        7        5     2014    310.9    505.5   1289.2   398.55      0.0    284.3     26.6     17.9      0.0    125.3       62    311.0    310.3      100     0.000     0.000     0.000     0.000      107        0        0        0        9        5        0    22.014       96     40.1    8.829   -9.900     2.02    0.000    0.000       27        8     2014  Maize_Short_Soroca_7May_Optimum_85_MPI.PRM
  Tot(35)        7        5     2015     53.8    613.9   1324.9   402.00      0.0     53.8      0.0      0.2      0.0     81.0       23    188.9    190.7       77     0.000     0.000     0.000     0.000       98        0        0        0        8       27       19    11.278       48     35.0    3.947   -9.900     1.47    0.000    0.000       27        8     2015  Maize_Short_Soroca_7May_Optimum_85_MPI.PRM
  Tot(36)        7        5     2016    260.0    524.9   1288.5   404.00      0.0    257.7      2.3      0.0      0.0    146.2       78    314.1    310.9       91     0.000     0.000     0.000     0.000      107        0        0        0       12        3        7    20.417       86     40.1    8.179   -9.900     1.78    0.000    0.000       27        8     2016  Maize_Short_Soroca_7May_Optimum_85_MPI.PRM
  Tot(37)        7        5     2017    198.7    557.0   1274.9   407.00      0.0    197.7      1.0      0.3      0.0    125.5       55    289.0    291.3       86     0.000     0.000     0.000     0.000      107        0        0        0       10        8       10    19.078       81     40.0    7.626   -9.900     1.84    0.000    0.000       27        8     2017  Maize_Short_Soroca_7May_Optimum_85_MPI.PRM
  Tot(38)        7        5     2018    243.9    523.5   1389.5   410.00      0.0    231.6     12.3      0.0      0.0     92.6       38    294.8    292.5      100     0.000     0.000     0.000     0.000      107        0        0        0        7        5        0    22.082       94     40.0    8.836   -9.900     2.28    0.000    0.000       27        8     2018  Maize_Short_Soroca_7May_Optimum_85_MPI.PRM
  Tot(39)        7        5     2019    283.0    528.5   1353.3   413.00      0.0    260.1     22.9     36.0      0.0    154.4       77    289.9    292.2       87     0.000     0.000     0.000     0.000      107        0        0        0        4        5       10    19.805       84     39.9    7.902   -9.900     1.78    0.000    0.000       27        8     2019  Maize_Short_Soroca_7May_Optimum_85_MPI.PRM
  Tot(40)        7        5     2020    211.1    455.6   1073.4   416.00      0.0    207.8      3.3      9.8      0.0    115.0       71    272.7    272.4       98     0.000     0.000     0.000     0.000      107        0        0        0       18        2        2    20.496       95     40.1    8.213   -9.900     2.12    0.000    0.000       27        8     2020  Maize_Short_Soroca_7May_Optimum_85_MPI.PRM
  Tot(41)        7        5     2021    231.0    484.1   1095.3   419.00      0.0    218.4     12.6      4.0      0.0     91.9       41    252.9    251.2      100     0.000     0.000     0.000     0.000      107        0        0        0       16        3        0    19.664       95     40.0    7.867   -9.900     2.28    0.000    0.000       27        8     2021  Maize_Short_Soroca_7May_Optimum_85_MPI.PRM
  Tot(42)        7        5     2022    303.1    465.6   1145.8   422.00      0.0    270.8     32.3     39.0      0.0    102.9       48    245.2    246.3      100     0.000     0.000     0.000     0.000      107        0        0        0       15        2        0    20.450       96     40.0    8.180   -9.900     2.35    0.000    0.000       27        8     2022  Maize_Short_Soroca_7May_Optimum_85_MPI.PRM
  Tot(43)        7        5     2023    281.1    430.6   1045.6   425.00      0.0    262.6     18.5      0.0      0.0    112.1       62    244.2    243.0      100     0.000     0.000     0.000     0.000      107        0        0        0       25       11        0    20.663       95     40.5    8.361   -9.900     2.35    0.000    0.000       27        8     2023  Maize_Short_Soroca_7May_Optimum_85_MPI.PRM
  Tot(44)        7        5     2024    185.4    468.4   1057.4   428.00      0.0    185.3      0.1      0.0      0.0    117.1       59    247.7    250.5       95     0.000     0.000     0.000     0.000      107        0        0        0       17        6        3    19.549       90     40.2    7.855   -9.900     2.15    0.000    0.000       27        8     2024  Maize_Short_Soroca_7May_Optimum_85_MPI.PRM
  Tot(45)        7        5     2025    136.1    481.0   1103.0   431.00      0.0    136.1      0.0      0.0      0.0    106.8       53    241.0    240.6       88     0.000     0.000     0.000     0.000      107        0        0        0       19        9       10    17.852       79     40.0    7.141   -9.900     2.05    0.000    0.000       27        8     2025  Maize_Short_Soroca_7May_Optimum_85_MPI.PRM
  Tot(46)        7        5     2026    234.5    529.4   1274.6   435.00      0.0    225.3      9.2      0.0      0.0     97.9       33    249.1    247.6      100     0.000     0.000     0.000     0.000      107        0        0        0       11       11        0    20.293       89     40.2    8.154   -9.900     2.35    0.000    0.000       27        8     2026  Maize_Short_Soroca_7May_Optimum_85_MPI.PRM
  Tot(47)        7        5     2027    225.7    448.6   1111.1   438.00      0.0    222.1      3.6      3.2      0.0    111.9       59    257.5    256.4      100     0.000     0.000     0.000     0.000      107        0        0        0       14        6        0    21.359       96     40.2    8.596   -9.900     2.33    0.000    0.000       27        8     2027  Maize_Short_Soroca_7May_Optimum_85_MPI.PRM
  Tot(48)        7        5     2028    297.5    460.2   1061.2   442.00      0.0    290.2      7.3      7.6      0.0    127.9       72    265.6    266.1      100     0.000     0.000     0.000     0.000      107        0        0        0       19        1        0    21.342       97     40.0    8.543   -9.900     2.17    0.000    0.000       27        8     2028  Maize_Short_Soroca_7May_Optimum_85_MPI.PRM
  Tot(49)        7        5     2029    366.0    426.8   1141.6   445.00      0.0    301.1     64.9     64.8      0.0    106.9       57    242.3    243.8      100     0.000     0.000     0.000     0.000      107        0        0        0       12        2        0    22.455       96     40.0    8.982   -9.900     2.57    0.000    0.000       27        8     2029  Maize_Short_Soroca_7May_Optimum_85_MPI.PRM
  Tot(50)        7        5     2030    161.7    436.4    956.2   449.00      0.0    160.8      0.9      0.0      0.0     97.0       53    220.3    221.1      100     0.000     0.000     0.000     0.000      107        0        0        0       25        3        0    19.249       96     40.1    7.721   -9.900     2.43    0.000    0.000       27        8     2030  Maize_Short_Soroca_7May_Optimum_85_MPI.PRM
  Tot(51)        7        5     2031    410.0    430.7   1079.4   452.00      0.0    355.7     54.3     81.6      0.0    115.1       62    234.3    233.4      100     0.000     0.000     0.000     0.000      107        0        0        0       17        1        0    20.935       97     40.0    8.374   -9.900     2.40    0.000    0.000       27        8     2031  Maize_Short_Soroca_7May_Optimum_85_MPI.PRM
  Tot(52)        7        5     2032    186.8    512.5   1130.6   456.00      0.0    177.7      9.1      0.0      0.0     84.5       38    253.9    254.2       90     0.000     0.000     0.000     0.000      107        0        0        0       17       16        6    18.507       82     40.7    7.526   -9.900     2.22    0.000    0.000       27        8     2032  Maize_Short_Soroca_7May_Optimum_85_MPI.PRM
  Tot(53)        7        5     2033    331.4    478.7   1081.5   460.00      0.0    294.4     37.0     43.1      0.0    123.1       67    284.3    284.0      100     0.000     0.000     0.000     0.000      107        0        0        0       17        2        0    21.846       97     40.1    8.760   -9.900     2.15    0.000    0.000       27        8     2033  Maize_Short_Soroca_7May_Optimum_85_MPI.PRM
  Tot(54)        7        5     2034    225.4    527.6   1292.5   464.00      0.0    218.0      7.4      0.5      0.0    115.8       48    264.4    265.5       90     0.000     0.000     0.000     0.000      107        0        0        0        8       20        6    19.051       80     40.2    7.652   -9.900     2.01    0.000    0.000       27        8     2034  Maize_Short_Soroca_7May_Optimum_85_MPI.PRM
  Tot(55)        7        5     2035    161.4    514.7   1099.9   468.00      0.0    161.0      0.4      0.0      0.0    121.7       57    253.3    253.4       87     0.000     0.000     0.000     0.000      107        0        0        0       18       15       12    17.654       76     40.4    7.127   -9.900     1.90    0.000    0.000       27        8     2035  Maize_Short_Soroca_7May_Optimum_85_MPI.PRM
  Tot(56)        7        5     2036    151.6    539.2   1170.6   472.00      0.0    150.8      0.8      0.0      0.0    121.3       55    249.0    248.3       81     0.000     0.000     0.000     0.000      107        0        0        0       17       12       14    17.434       74     39.9    6.960   -9.900     1.88    0.000    0.000       27        8     2036  Maize_Short_Soroca_7May_Optimum_85_MPI.PRM
  Tot(57)        7        5     2037    215.1    438.2   1090.0   476.00      0.0    212.7      2.4      0.0      0.0    123.3       70    253.7    254.1      100     0.000     0.000     0.000     0.000      107        0        0        0       18        1        0    22.057       97     40.0    8.828   -9.900     2.34    0.000    0.000       27        8     2037  Maize_Short_Soroca_7May_Optimum_85_MPI.PRM
  Tot(58)        7        5     2038    126.5    526.3   1151.5   481.00      0.0    126.5      0.0      0.0      0.0    100.3       45    241.8    241.7       86     0.000     0.000     0.000     0.000      107        0        0        0       18        9       10    17.335       80     40.2    6.963   -9.900     2.04    0.000    0.000       27        8     2038  Maize_Short_Soroca_7May_Optimum_85_MPI.PRM
  Tot(59)        7        5     2039    220.1    466.0   1224.5   485.00      0.0    210.2      9.9     10.5      0.0     91.0       48    273.8    270.8      100     0.000     0.000     0.000     0.000      107        0        0        0        7        4        0    22.532       95     40.0    9.016   -9.900     2.47    0.000    0.000       27        8     2039  Maize_Short_Soroca_7May_Optimum_85_MPI.PRM
  Tot(60)        7        5     2040    289.5    417.3   1050.2   489.00      0.0    266.9     22.6     27.8      0.0    125.6       78    239.4    241.4      100     0.000     0.000     0.000     0.000      107        0        0        0       19        0        0    21.254       97     40.0    8.502   -9.900     2.33    0.000    0.000       27        8     2040  Maize_Short_Soroca_7May_Optimum_85_MPI.PRM
  Tot(61)        7        5     2041    246.8    506.0   1151.8   494.00      0.0    223.9     22.9      0.0      0.0    104.0       46    265.9    267.2       97     0.000     0.000     0.000     0.000      107        0        0        0       15        9        2    20.280       91     40.2    8.143   -9.900     2.20    0.000    0.000       27        8     2041  Maize_Short_Soroca_7May_Optimum_85_MPI.PRM
  Tot(62)        7        5     2042    256.3    481.5   1163.4   499.00      0.0    248.7      7.6      0.0      0.0    114.0       53    263.9    260.9      100     0.000     0.000     0.000     0.000      107        0        0        0       14        6        0    21.917       95     40.1    8.791   -9.900     2.33    0.000    0.000       27        8     2042  Maize_Short_Soroca_7May_Optimum_85_MPI.PRM
  Tot(63)        7        5     2043    188.0    464.2   1175.0   504.00      0.0    185.3      2.7     10.9      0.0    115.6       71    268.3    270.1       91     0.000     0.000     0.000     0.000      107        0        0        0       13        5        7    20.884       87     40.2    8.388   -9.900     2.18    0.000    0.000       27        8     2043  Maize_Short_Soroca_7May_Optimum_85_MPI.PRM
  Tot(64)        7        5     2044    250.7    458.4   1100.9   508.00      0.0    236.8     13.9     20.2      0.0    113.4       65    269.2    266.6      100     0.000     0.000     0.000     0.000      107        0        0        0       17        6        0    21.531       95     40.3    8.669   -9.900     2.27    0.000    0.000       27        8     2044  Maize_Short_Soroca_7May_Optimum_85_MPI.PRM
  Tot(65)        7        5     2045    162.0    493.0   1167.8   513.00      0.0    159.1      2.9     10.0      0.0    113.7       52    240.6    243.4       89     0.000     0.000     0.000     0.000      107        0        0        0       13       13        7    19.571       81     40.3    7.895   -9.900     2.23    0.000    0.000       27        8     2045  Maize_Short_Soroca_7May_Optimum_85_MPI.PRM
  Tot(66)        7        5     2046    335.4    450.7   1162.0   519.00      0.0    314.9     20.5     22.0      0.0    127.0       70    264.1    263.2      100     0.000     0.000     0.000     0.000      107        0        0        0       13        0        0    22.842       97     40.0    9.137   -9.900     2.34    0.000    0.000       27        8     2046  Maize_Short_Soroca_7May_Optimum_85_MPI.PRM
  Tot(67)        7        5     2047    262.9    427.1   1095.4   524.00      0.0    258.0      4.9      4.1      0.0    128.2       77    251.2    250.5      100     0.000     0.000     0.000     0.000      107        0        0        0       14       10        0    21.412       96     40.5    8.667   -9.900     2.28    0.000    0.000       27        8     2047  Maize_Short_Soroca_7May_Optimum_85_MPI.PRM
  Tot(68)        7        5     2048    216.9    528.3   1242.2   529.00      0.0    199.9     17.0     21.5      0.0    106.8       48    263.6    265.1       88     0.000     0.000     0.000     0.000      107        0        0        0       10       12        6    19.173       80     40.3    7.729   -9.900     2.09    0.000    0.000       27        8     2048  Maize_Short_Soroca_7May_Optimum_85_MPI.PRM
  Tot(69)        7        5     2049    172.0    482.7   1149.5   535.00      0.0    171.8      0.2      0.0      0.0     99.3       52    265.5    264.9       98     0.000     0.000     0.000     0.000      107        0        0        0       16        3        2    21.185       94     40.1    8.496   -9.900     2.33    0.000    0.000       27        8     2049  Maize_Short_Soroca_7May_Optimum_85_MPI.PRM
  Tot(70)        7        5     2050    245.6    460.1   1164.7   541.00      0.0    238.8      6.8      0.0      0.0    100.4       47    238.9    239.3      100     0.000     0.000     0.000     0.000      107        0        0        0       12        5        0    22.147       95     40.2    8.897   -9.900     2.62    0.000    0.000       27        8     2050  Maize_Short_Soroca_7May_Optimum_85_MPI.PRM
  Tot(71)        7        5     2051    265.6    479.6   1131.7   546.00      0.0    247.6     18.0     12.9      0.0    103.5       57    275.5    273.8       96     0.000     0.000     0.000     0.000      107        0        0        0       14        3        2    21.834       93     40.0    8.742   -9.900     2.31    0.000    0.000       27        8     2051  Maize_Short_Soroca_7May_Optimum_85_MPI.PRM
  Tot(72)        7        5     2052    198.2    473.9   1121.8   552.00      0.0    197.6      0.6      0.0      0.0     94.8       45    246.2    245.5      100     0.000     0.000     0.000     0.000      107        0        0        0       14        3        0    21.000       95     40.0    8.408   -9.900     2.47    0.000    0.000       27        8     2052  Maize_Short_Soroca_7May_Optimum_85_MPI.PRM
  Tot(73)        7        5     2053    224.3    526.8   1282.7   558.00      0.0    201.5     22.8      0.0      0.0     95.4       39    270.0    271.5       97     0.000     0.000     0.000     0.000      107        0        0        0        9       10        1    20.793       89     40.1    8.329   -9.900     2.28    0.000    0.000       27        8     2053  Maize_Short_Soroca_7May_Optimum_85_MPI.PRM
  Tot(74)        7        5     2054    165.1    544.7   1244.2   564.00      0.0    155.6      9.5     17.3      0.0    114.6       51    245.7    247.4       80     0.000     0.000     0.000     0.000      107        0        0        0       13       17       16    16.964       69     40.0    6.787   -9.900     1.88    0.000    0.000       27        8     2054  Maize_Short_Soroca_7May_Optimum_85_MPI.PRM
  Tot(75)        7        5     2055    210.8    461.8   1143.4   571.00      0.0    201.7      9.1     10.7      0.0    116.7       67    264.4    262.7       98     0.000     0.000     0.000     0.000      107        0        0        0       16        1        1    22.081       96     40.1    8.847   -9.900     2.32    0.000    0.000       27        8     2055  Maize_Short_Soroca_7May_Optimum_85_MPI.PRM
  Tot(76)        7        5     2056     96.4    553.3   1277.0   577.00      0.0     96.4      0.0      0.0      0.0     89.3       32    217.5    219.5       81     0.000     0.000     0.000     0.000      107        0        0        0        7       21       14    16.274       68     40.1    6.522   -9.900     2.13    0.000    0.000       27        8     2056  Maize_Short_Soroca_7May_Optimum_85_MPI.PRM
  Tot(77)        7        5     2057    178.4    567.5   1263.0   583.00      0.0    162.2     16.2      0.0      0.0     92.4       37    241.8    240.9       81     0.000     0.000     0.000     0.000      107        0        0        0       10       10       12    17.369       74     39.7    6.887   -9.900     2.06    0.000    0.000       27        8     2057  Maize_Short_Soroca_7May_Optimum_85_MPI.PRM
  Tot(78)        7        5     2058    346.6    422.2   1129.7   590.00      0.0    299.2     47.4     36.6      0.0    100.7       64    251.6    250.3      100     0.000     0.000     0.000     0.000      107        0        0        0       18        4        0    22.507       97     40.2    9.046   -9.900     2.57    0.000    0.000       27        8     2058  Maize_Short_Soroca_7May_Optimum_85_MPI.PRM
  Tot(79)        7        5     2059    223.8    527.4   1262.6   597.00      0.0    207.1     16.7     23.0      0.0    116.1       60    283.7    284.9       88     0.000     0.000     0.000     0.000      107        0        0        0       13        3        7    21.269       87     40.0    8.498   -9.900     2.13    0.000    0.000       27        8     2059  Maize_Short_Soroca_7May_Optimum_85_MPI.PRM
  Tot(80)        7        5     2060    103.4    536.6   1204.3   604.00      0.0    103.4      0.0      0.0      0.0     87.4       37    233.8    233.9       83     0.000     0.000     0.000     0.000      107        0        0        0       12       13       12    17.073       73     40.0    6.837   -9.900     2.13    0.000    0.000       27        8     2060  Maize_Short_Soroca_7May_Optimum_85_MPI.PRM
  Tot(81)        7        5     2061    218.9    431.9   1048.4   611.00      0.0    211.7      7.2     15.4      0.0    117.4       76    248.7    246.0      100     0.000     0.000     0.000     0.000      107        0        0        0       21        1        0    21.493       97     40.0    8.605   -9.900     2.35    0.000    0.000       27        8     2061  Maize_Short_Soroca_7May_Optimum_85_MPI.PRM
  Tot(82)        7        5     2062    154.2    516.3   1247.3   618.00      0.0    152.0      2.2      0.6      0.0     95.0       43    264.6    267.0       93     0.000     0.000     0.000     0.000      107        0        0        0        7        5        5    21.432       88     40.0    8.582   -9.900     2.39    0.000    0.000       27        8     2062  Maize_Short_Soroca_7May_Optimum_85_MPI.PRM
  Tot(83)        7        5     2063    203.9    513.0   1260.1   625.00      0.0    195.3      8.6      9.6      0.0    132.9       60    259.8    259.7       91     0.000     0.000     0.000     0.000      107        0        0        0        9       10        6    20.940       86     40.0    8.383   -9.900     2.14    0.000    0.000       27        8     2063  Maize_Short_Soroca_7May_Optimum_85_MPI.PRM
  Tot(84)        7        5     2064    221.4    485.4   1327.0   632.00      0.0    212.1      9.3     10.0      0.0    118.3       60    270.9    271.8       96     0.000     0.000     0.000     0.000      107        0        0        0        7        3        2    23.088       94     40.1    9.264   -9.900     2.38    0.000    0.000       27        8     2064  Maize_Short_Soroca_7May_Optimum_85_MPI.PRM
  Tot(85)        7        5     2065    160.6    477.0   1182.1   639.00      0.0    158.4      2.2      0.5      0.0    101.7       52    253.3    251.9       96     0.000     0.000     0.000     0.000      107        0        0        0       11        3        3    21.697       92     40.0    8.684   -9.900     2.45    0.000    0.000       27        8     2065  Maize_Short_Soroca_7May_Optimum_85_MPI.PRM
  Tot(86)        7        5     2066    187.4    627.5   1419.4   647.00      0.0    183.4      4.0      0.0      0.0    102.4       36    266.7    266.3       82     0.000     0.000     0.000     0.000      107        0        0        0        6       13       11    17.969       73     39.7    7.136   -9.900     1.93    0.000    0.000       27        8     2066  Maize_Short_Soroca_7May_Optimum_85_MPI.PRM
  Tot(87)        7        5     2067    194.4    503.3   1193.7   654.00      0.0    191.5      2.9      0.0      0.0     87.4       37    255.7    257.2      100     0.000     0.000     0.000     0.000      107        0        0        0       12        6        0    21.919       94     40.1    8.785   -9.900     2.56    0.000    0.000       27        8     2067  Maize_Short_Soroca_7May_Optimum_85_MPI.PRM
  Tot(88)        7        5     2068    213.4    523.5   1301.9   662.00      0.0    211.3      2.1      1.0      0.0    138.4       66    271.2    269.4       90     0.000     0.000     0.000     0.000      107        0        0        0        7        7        6    20.692       86     40.0    8.282   -9.900     2.02    0.000    0.000       27        8     2068  Maize_Short_Soroca_7May_Optimum_85_MPI.PRM
  Tot(89)        7        5     2069    294.1    470.7   1261.5   669.00      0.0    267.9     26.2      0.0      0.0     92.4       45    255.2    256.0      100     0.000     0.000     0.000     0.000      107        0        0        0        8        5        0    22.439       95     40.0    8.985   -9.900     2.58    0.000    0.000       27        8     2069  Maize_Short_Soroca_7May_Optimum_85_MPI.PRM
  Tot(90)        7        5     2070    173.6    506.8   1204.2   677.00      0.0    168.9      4.7      8.2      0.0    107.3       56    266.2    266.8       90     0.000     0.000     0.000     0.000      107        0        0        0       15        5        7    20.779       87     40.1    8.330   -9.900     2.23    0.000    0.000       27        8     2070  Maize_Short_Soroca_7May_Optimum_85_MPI.PRM
  Tot(91)        7        5     2071    173.6    532.7   1356.0   685.00      0.0    164.8      8.8     16.0      0.0    110.0       48    254.7    254.7       88     0.000     0.000     0.000     0.000      107        0        0        0        7        6        8    19.955       83     40.1    7.995   -9.900     2.19    0.000    0.000       27        8     2071  Maize_Short_Soroca_7May_Optimum_85_MPI.PRM
  Tot(92)        7        5     2072    135.7    592.1   1316.5   693.00      0.0    135.0      0.7      0.0      0.0    118.6       45    214.8    214.8       74     0.000     0.000     0.000     0.000      107        0        0        0        9       22       20    14.514       59     39.5    5.739   -9.900     1.72    0.000    0.000       27        8     2072  Maize_Short_Soroca_7May_Optimum_85_MPI.PRM
  Tot(93)        7        5     2073    244.2    421.4   1142.3   701.00      0.0    221.8     22.4     17.4      0.0    107.5       65    234.2    233.3      100     0.000     0.000     0.000     0.000      107        0        0        0       11        2        0    22.412       97     40.1    8.985   -9.900     2.63    0.000    0.000       27        8     2073  Maize_Short_Soroca_7May_Optimum_85_MPI.PRM
  Tot(94)        7        5     2074    263.6    428.0   1158.1   709.00      0.0    257.1      6.5      7.5      0.0    115.1       60    221.2    221.0      100     0.000     0.000     0.000     0.000      107        0        0        0       13        1        0    22.424       97     40.0    8.973   -9.900     2.67    0.000    0.000       27        8     2074  Maize_Short_Soroca_7May_Optimum_85_MPI.PRM
  Tot(95)        7        5     2075    156.8    514.8   1298.8   717.00      0.0    151.3      5.5     13.1      0.0    110.5       57    245.3    246.9       84     0.000     0.000     0.000     0.000      107        0        0        0        9        3       13    18.945       78     39.8    7.542   -9.900     2.12    0.000    0.000       27        8     2075  Maize_Short_Soroca_7May_Optimum_85_MPI.PRM
  Tot(96)        7        5     2076    150.7    540.3   1361.2   725.00      0.0    150.2      0.5      0.0      0.0    114.8       50    238.0    236.1       82     0.000     0.000     0.000     0.000      107        0        0        0       12       14       12    18.083       74     40.2    7.272   -9.900     2.06    0.000    0.000       27        8     2076  Maize_Short_Soroca_7May_Optimum_85_MPI.PRM
  Tot(97)        7        5     2077    162.4    516.1   1369.8   733.00      0.0    160.0      2.4      3.2      0.0     88.6       38    259.7    260.0       96     0.000     0.000     0.000     0.000      107        0        0        0        5       11        3    21.721       88     40.4    8.767   -9.900     2.52    0.000    0.000       27        8     2077  Maize_Short_Soroca_7May_Optimum_85_MPI.PRM
  Tot(98)        7        5     2078    252.3    497.2   1351.2   742.00      0.0    236.8     15.5      6.6      0.0     98.1       46    267.6    267.9      100     0.000     0.000     0.000     0.000      107        0        0        0        6        2        0    23.165       96     40.0    9.266   -9.900     2.53    0.000    0.000       27        8     2078  Maize_Short_Soroca_7May_Optimum_85_MPI.PRM
  Tot(99)        7        5     2079    184.1    490.5   1154.0   750.00      0.0    165.0     19.1      0.0      0.0    101.0       46    250.8    250.4       99     0.000     0.000     0.000     0.000      107        0        0        0       14        7        1    21.935       94     40.2    8.817   -9.900     2.51    0.000    0.000       27        8     2079  Maize_Short_Soroca_7May_Optimum_85_MPI.PRM
 Tot(100)        7        5     2080    130.9    511.1   1306.4   758.00      0.0    130.3      0.6      0.0      0.0     93.6       44    246.2    247.1       89     0.000     0.000     0.000     0.000      107        0        0        0        9       11        8    20.092       84     40.3    8.104   -9.900     2.38    0.000    0.000       27        8     2080  Maize_Short_Soroca_7May_Optimum_85_MPI.PRM
 Tot(101)        7        5     2081    167.7    483.2   1259.2   767.00      0.0    163.8      3.9      8.7      0.0    104.4       52    249.1    249.1       94     0.000     0.000     0.000     0.000      107        0        0        0        9        7        5    20.964       88     40.1    8.413   -9.900     2.38    0.000    0.000       27        8     2081  Maize_Short_Soroca_7May_Optimum_85_MPI.PRM
 Tot(102)        7        5     2082    137.4    600.6   1413.8   775.00      0.0    133.9      3.5      0.2      0.0    112.0       45    242.6    243.9       80     0.000     0.000     0.000     0.000      107        0        0        0        8        8       19    16.120       66     39.3    6.334   -9.900     1.79    0.000    0.000       27        8     2082  Maize_Short_Soroca_7May_Optimum_85_MPI.PRM
 Tot(103)        7        5     2083    144.5    553.2   1420.4   784.00      0.0    142.2      2.3      2.5      0.0    133.6       59    230.1    229.9       79     0.000     0.000     0.000     0.000      107        0        0        0        6        9       17    17.608       72     39.5    6.962   -9.900     1.91    0.000    0.000       27        8     2083  Maize_Short_Soroca_7May_Optimum_85_MPI.PRM
 Tot(104)        7        5     2084    329.8    475.1   1375.1   792.00      0.0    315.9     13.9     10.8      0.0    119.6       53    232.5    229.7      100     0.000     0.000     0.000     0.000      107        0        0        0        4        2        0    22.846       96     40.0    9.140   -9.900     2.60    0.000    0.000       27        8     2084  Maize_Short_Soroca_7May_Optimum_85_MPI.PRM
 Tot(105)        7        5     2085    112.5    591.0   1373.4   801.00      0.0    112.0      0.5      0.0      0.0     94.7       37    239.5    242.2       80     0.000     0.000     0.000     0.000      107        0        0        0        6        8       16    17.145       71     39.4    6.762   -9.900     2.02    0.000    0.000       27        8     2085  Maize_Short_Soroca_7May_Optimum_85_MPI.PRM
 Tot(106)        7        5     2086    274.0    525.8   1329.2   810.00      0.0    260.3     13.7     12.0      0.0    128.3       62    276.0    274.2       94     0.000     0.000     0.000     0.000      107        0        0        0        6       13        4    21.473       89     40.8    8.750   -9.900     2.16    0.000    0.000       27        8     2086  Maize_Short_Soroca_7May_Optimum_85_MPI.PRM
 Tot(107)        7        5     2087    235.0    499.9   1263.8   818.00      0.0    222.6     12.4     23.2      0.0    137.6       67    256.4    256.7       94     0.000     0.000     0.000     0.000      107        0        0        0       11        7        4    21.214       90     40.3    8.560   -9.900     2.17    0.000    0.000       27        8     2087  Maize_Short_Soroca_7May_Optimum_85_MPI.PRM
 Tot(108)        7        5     2088    152.2    553.2   1371.4   827.00      0.0    132.6     19.6     17.6      0.0     99.2       38    226.2    227.1       85     0.000     0.000     0.000     0.000      107        0        0        0        3       13       12    17.178       71     40.2    6.897   -9.900     2.12    0.000    0.000       27        8     2088  Maize_Short_Soroca_7May_Optimum_85_MPI.PRM
 Tot(109)        7        5     2089    351.1    466.6   1270.7   836.00      0.0    302.3     48.8     48.6      0.0    121.5       69    260.8    259.1      100     0.000     0.000     0.000     0.000      107        0        0        0        9        1        0    22.554       97     40.1    9.036   -9.900     2.36    0.000    0.000       27        8     2089  Maize_Short_Soroca_7May_Optimum_85_MPI.PRM
 Tot(110)        7        5     2090    104.1    562.8   1282.8   845.00      0.0    104.0      0.1      0.0      0.0    116.5       45    201.4    203.9       79     0.000     0.000     0.000     0.000      102        0        0        0       14       18       18    13.707       57     39.1    5.355   -9.900     1.71    0.000    0.000       27        8     2090  Maize_Short_Soroca_7May_Optimum_85_MPI.PRM
 Tot(111)        7        5     2091    210.5    546.3   1398.3   854.00      0.0    202.5      8.0      0.0      0.0     90.1       36    262.1    260.9       95     0.000     0.000     0.000     0.000      107        0        0        0        4        6        3    20.960       89     40.0    8.391   -9.900     2.38    0.000    0.000       27        8     2091  Maize_Short_Soroca_7May_Optimum_85_MPI.PRM
 Tot(112)        7        5     2092    182.2    646.0   1525.9   863.00      0.0    177.9      4.3     14.2      0.0    116.8       45    268.9    269.8       80     0.000     0.000     0.000     0.000      107        0        0        0        2        7       16    17.286       71     39.3    6.793   -9.900     1.76    0.000    0.000       27        8     2092  Maize_Short_Soroca_7May_Optimum_85_MPI.PRM
 Tot(113)        7        5     2093    159.0    539.2   1415.4   872.00      0.0    156.0      3.0      0.0      0.0     75.2       31    267.4    265.0       98     0.000     0.000     0.000     0.000      107        0        0        0        2        7        1    21.906       91     40.1    8.789   -9.900     2.57    0.000    0.000       27        8     2093  Maize_Short_Soroca_7May_Optimum_85_MPI.PRM
 Tot(114)        7        5     2094    294.1    458.0   1273.6   881.00      0.0    261.4     32.7     32.1      0.0    133.3       69    236.5    237.9       98     0.000     0.000     0.000     0.000      107        0        0        0        9        6        1    22.080       94     40.3    8.897   -9.900     2.41    0.000    0.000       27        8     2094  Maize_Short_Soroca_7May_Optimum_85_MPI.PRM
 Tot(115)        7        5     2095    160.6    584.9   1448.2   890.00      0.0    157.4      3.2      0.0      0.0     98.2       33    239.5    238.8       90     0.000     0.000     0.000     0.000      107        0        0        0        4       27        6    17.501       73     40.8    7.143   -9.900     2.12    0.000    0.000       27        8     2095  Maize_Short_Soroca_7May_Optimum_85_MPI.PRM
 Tot(116)        7        5     2096    151.7    666.4   1610.1   899.00      0.0    134.7     17.0      1.2      0.0     87.5       27    265.4    266.6       84     0.000     0.000     0.000     0.000      107        0        0        0        1       18       11    17.337       72     39.7    6.882   -9.900     1.95    0.000    0.000       27        8     2096  Maize_Short_Soroca_7May_Optimum_85_MPI.PRM
 Tot(117)        7        5     2097    274.6    488.0   1352.2   908.00      0.0    259.9     14.7      8.7      0.0    122.9       57    246.7    245.5      100     0.000     0.000     0.000     0.000      107        0        0        0        7       10        0    22.207       95     40.5    9.003   -9.900     2.44    0.000    0.000       27        8     2097  Maize_Short_Soroca_7May_Optimum_85_MPI.PRM
 Tot(118)        7        5     2098    204.4    487.4   1280.2   917.00      0.0    196.4      8.0     11.6      0.0    116.6       58    251.2    251.3       99     0.000     0.000     0.000     0.000      107        0        0        0        7        4        0    22.199       96     40.1    8.911   -9.900     2.42    0.000    0.000       27        8     2098  Maize_Short_Soroca_7May_Optimum_85_MPI.PRM
 Tot(119)        7        5     2099    207.5    525.2   1402.1   927.00      0.0    200.7      6.8     17.4      0.0    126.9       66    260.4    261.1       90     0.000     0.000     0.000     0.000      107        0        0        0        6        8        8    19.264       82     40.3    7.773   -9.900     2.01    0.000    0.000       27        8     2099  Maize_Short_Soroca_7May_Optimum_85_MPI.PRM
