AquaCrop 7.0 (August 2022) - Output created on (date) : 23-11-2022   at (time) : 11:39:02

    RunNr     Day1   Month1    Year1     Rain      ETo       GD     CO2      Irri   Infilt   Runoff    Drain   Upflow        E     E/Ex       Tr      TrW   Tr/Trx    SaltIn   SaltOut    SaltUp  SaltProf     Cycle   SaltStr  FertStr  WeedStr  TempStr   ExpStr   StoStr  BioMass  Brelative   HI    Y(dry)  Y(fresh)    WPet      Bin     Bout     DayN   MonthN    YearN
                                           mm       mm  degC.day    ppm        mm       mm       mm       mm       mm       mm        %       mm       mm        %    ton/ha    ton/ha    ton/ha    ton/ha      days       %        %        %        %        %        %    ton/ha        %       %    ton/ha   ton/ha    kg/m3   ton/ha   ton/ha
   Tot(1)        6        6     1981    179.0    479.2   1259.0   340.11      0.0    174.7      4.3      0.0      0.0    132.9       57    220.5    171.8       90     0.000     0.000     0.000     0.000      107        0       42       25       13       17        7    12.632       63     40.7    5.146   -9.900     1.46    0.000    0.000       26        9     1981  Maize_short_Cahul_6June_NonOptimum_26_MPI.PRM
   Tot(2)        6        6     1982    226.5    453.3   1300.2   341.22      0.0    224.6      1.9      0.0      0.0    156.5       76    260.5    202.3       99     0.000     0.000     0.000     0.000      107        0       42       25        6        2        1    16.687       74     40.1    6.696   -9.900     1.61    0.000    0.000       26        9     1982  Maize_short_Cahul_6June_NonOptimum_26_MPI.PRM
   Tot(3)        6        6     1983    282.8    466.4   1248.7   342.84      0.0    248.9     33.9     46.7      0.0    132.2       64    257.0    200.1       99     0.000     0.000     0.000     0.000      107        0       42       25        9        4        1    15.698       74     40.0    6.280   -9.900     1.61    0.000    0.000       26        9     1983  Maize_short_Cahul_6June_NonOptimum_26_MPI.PRM
   Tot(4)        6        6     1984    143.5    453.8   1166.3   344.40      0.0    140.3      3.2      4.9      0.0    123.3       58    220.8    171.5       91     0.000     0.000     0.000     0.000      107        0       42       25       11        9        9    13.921       65     40.2    5.600   -9.900     1.63    0.000    0.000       26        9     1984  Maize_short_Cahul_6June_NonOptimum_26_MPI.PRM
   Tot(5)        6        6     1985    324.4    461.9   1179.1   345.87      0.0    287.6     36.8     49.1      0.0    135.8       70    258.6    201.2       99     0.000     0.000     0.000     0.000      107        0       42       25       16        4        0    14.894       74     40.2    5.991   -9.900     1.52    0.000    0.000       26        9     1985  Maize_short_Cahul_6June_NonOptimum_26_MPI.PRM
   Tot(6)        6        6     1986    149.3    523.6   1330.5   347.19      0.0    143.2      6.1      7.2      0.0    118.6       48    231.7    181.9       83     0.000     0.000     0.000     0.000      107        0       42       25        8       15       14    12.336       57     40.4    4.979   -9.900     1.42    0.000    0.000       26        9     1986  Maize_short_Cahul_6June_NonOptimum_26_MPI.PRM
   Tot(7)        6        6     1987    210.0    499.3   1282.2   348.98      0.0    199.7     10.3      5.6      0.0    126.8       54    262.1    203.0       98     0.000     0.000     0.000     0.000      107        0       42       25        9        6        2    15.230       73     40.3    6.132   -9.900     1.58    0.000    0.000       26        9     1987  Maize_short_Cahul_6June_NonOptimum_26_MPI.PRM
   Tot(8)        6        6     1988    164.3    492.5   1317.1   351.45      0.0    154.4      9.9      0.0      0.0    107.7       41    206.4    164.1       87     0.000     0.000     0.000     0.000      107        0       42       25        9       24        8    11.594       55     40.7    4.724   -9.900     1.50    0.000    0.000       26        9     1988  Maize_short_Cahul_6June_NonOptimum_26_MPI.PRM
   Tot(9)        6        6     1989    263.2    446.7   1239.6   352.89      0.0    252.6     10.6      6.9      0.0    133.6       65    242.4    187.8      100     0.000     0.000     0.000     0.000      107        0       42       25       11        3        0    15.476       75     40.1    6.209   -9.900     1.65    0.000    0.000       26        9     1989  Maize_short_Cahul_6June_NonOptimum_26_MPI.PRM
  Tot(10)        6        6     1990    126.8    508.1   1226.1   354.16      0.0    126.2      0.6      0.0      0.0    119.2       45    208.6    165.6       87     0.000     0.000     0.000     0.000      107        0       42       25       13       18       13    11.418       58     40.4    4.618   -9.900     1.41    0.000    0.000       26        9     1990  Maize_short_Cahul_6June_NonOptimum_26_MPI.PRM
  Tot(11)        6        6     1991    222.0    443.1   1313.0   355.48      0.0    209.4     12.6     21.9      0.0    124.4       61    240.4    185.9      100     0.000     0.000     0.000     0.000      107        0       42       25        8        3        0    15.787       75     40.2    6.340   -9.900     1.74    0.000    0.000       26        9     1991  Maize_short_Cahul_6June_NonOptimum_26_MPI.PRM
  Tot(12)        6        6     1992    139.3    517.8   1313.1   356.27      0.0    135.9      3.4      6.6      0.0    123.4       48    211.3    168.5       82     0.000     0.000     0.000     0.000      107        0       42       25       10       22       15    10.907       52     40.5    4.422   -9.900     1.32    0.000    0.000       26        9     1992  Maize_short_Cahul_6June_NonOptimum_26_MPI.PRM
  Tot(13)        6        6     1993    141.0    501.0   1168.2   356.95      0.0    140.8      0.2      0.0      0.0    104.1       42    227.4    177.4       93     0.000     0.000     0.000     0.000      107        0       42       25       16       16        5    12.979       66     40.7    5.276   -9.900     1.59    0.000    0.000       26        9     1993  Maize_short_Cahul_6June_NonOptimum_26_MPI.PRM
  Tot(14)        6        6     1994    201.5    505.3   1432.3   358.63      0.0    160.3     41.2     32.0      0.0     90.1       36    252.3    197.9       90     0.000     0.000     0.000     0.000      107        0       42       25        3       18        8    14.469       62     40.7    5.885   -9.900     1.72    0.000    0.000       26        9     1994  Maize_short_Cahul_6June_NonOptimum_26_MPI.PRM
  Tot(15)        6        6     1995    191.4    495.2   1340.3   360.62      0.0    188.1      3.3      0.0      0.0    121.7       48    237.3    186.5       95     0.000     0.000     0.000     0.000      107        0       42       25        9       16        3    14.208       68     40.7    5.781   -9.900     1.61    0.000    0.000       26        9     1995  Maize_short_Cahul_6June_NonOptimum_26_MPI.PRM
  Tot(16)        6        6     1996    216.5    496.5   1218.6   362.37      0.0    188.4     28.1      0.0      0.0     84.8       28    192.8    153.3       97     0.000     0.000     0.000     0.000      107        0       42       25       17       27        1    11.832       63     40.9    4.840   -9.900     1.74    0.000    0.000       26        9     1996  Maize_short_Cahul_6June_NonOptimum_26_MPI.PRM
  Tot(17)        6        6     1997    374.7    437.8   1219.0   363.47      0.0    331.6     43.1     21.0      0.0    154.2       73    216.0    168.3      100     0.000     0.000     0.000     0.000      107        0       42       25       13        1        0    14.898       75     40.0    5.959   -9.900     1.61    0.000    0.000       26        9     1997  Maize_short_Cahul_6June_NonOptimum_26_MPI.PRM
  Tot(18)        6        6     1998    210.6    490.9   1290.8   366.50      0.0    202.8      7.8      2.7      0.0    137.5       57    216.7    170.1       88     0.000     0.000     0.000     0.000      107        0       42       25       11       22        7    12.094       58     40.7    4.927   -9.900     1.39    0.000    0.000       26        9     1998  Maize_short_Cahul_6June_NonOptimum_26_MPI.PRM
  Tot(19)        6        6     1999    276.9    515.7   1442.8   368.14      0.0    264.5     12.4     18.9      0.0    146.3       54    262.2    204.2      100     0.000     0.000     0.000     0.000      107        0       42       25        5       12        0    16.063       72     40.4    6.493   -9.900     1.59    0.000    0.000       26        9     1999  Maize_short_Cahul_6June_NonOptimum_26_MPI.PRM
  Tot(20)        6        6     2000    158.9    542.0   1294.7   369.41      0.0    148.1     10.8      0.0      0.0     98.1       31    203.4    163.5       85     0.000     0.000     0.000     0.000      107        0       42       25       12       25        8    10.948       52     40.7    4.458   -9.900     1.48    0.000    0.000       26        9     2000  Maize_short_Cahul_6June_NonOptimum_26_MPI.PRM
  Tot(21)        6        6     2001    221.7    527.9   1398.2   371.07      0.0    201.1     20.6      0.3      0.0    135.1       46    194.9    155.7       82     0.000     0.000     0.000     0.000      107        0       42       25        6       27       12    10.151       45     40.6    4.121   -9.900     1.25    0.000    0.000       26        9     2001  Maize_short_Cahul_6June_NonOptimum_26_MPI.PRM
  Tot(22)        6        6     2002    281.0    528.2   1422.2   373.16      0.0    245.2     35.8     12.8      0.0    108.3       38    260.4    202.4      100     0.000     0.000     0.000     0.000      107        0       42       25        6        5        0    15.877       72     40.0    6.351   -9.900     1.72    0.000    0.000       26        9     2002  Maize_short_Cahul_6June_NonOptimum_26_MPI.PRM
  Tot(23)        6        6     2003    140.3    548.0   1349.4   375.80      0.0    134.9      5.4      0.0      0.0    100.9       34    221.2    174.5       86     0.000     0.000     0.000     0.000      107        0       42       25        9       17       10    12.222       57     40.4    4.941   -9.900     1.53    0.000    0.000       26        9     2003  Maize_short_Cahul_6June_NonOptimum_26_MPI.PRM
  Tot(24)        6        6     2004    228.7    508.4   1288.8   377.49      0.0    221.5      7.2      3.7      0.0    113.5       45    258.8    200.7      100     0.000     0.000     0.000     0.000      107        0       42       25        9        6        0    15.613       73     40.2    6.270   -9.900     1.68    0.000    0.000       26        9     2004  Maize_short_Cahul_6June_NonOptimum_26_MPI.PRM
  Tot(25)        6        6     2005    352.7    506.6   1346.7   379.80      0.0    327.3     25.4     34.4      0.0    134.4       59    291.2    224.6      100     0.000     0.000     0.000     0.000      107        0       42       25        5        2        0    16.877       74     40.0    6.757   -9.900     1.59    0.000    0.000       26        9     2005  Maize_short_Cahul_6June_NonOptimum_26_MPI.PRM
  Tot(26)        6        6     2006    156.6    550.8   1344.7   381.90      0.0    154.3      2.3      0.0      0.0    113.1       36    238.3    190.8       93     0.000     0.000     0.000     0.000      107        0       42       25        6       24        5    13.397       60     40.6    5.444   -9.900     1.55    0.000    0.000       26        9     2006  Maize_short_Cahul_6June_NonOptimum_26_MPI.PRM
  Tot(27)        6        6     2007    159.1    626.4   1410.5   383.77      0.0    157.4      1.7      0.0      0.0    124.0       31    229.3    184.3       92     0.000     0.000     0.000     0.000      107        0       42       25        8       25        6    11.866       55     40.2    4.774   -9.900     1.35    0.000    0.000       26        9     2007  Maize_short_Cahul_6June_NonOptimum_26_MPI.PRM
  Tot(28)        6        6     2008    197.7    569.5   1367.7   385.59      0.0    188.2      9.5      0.0      0.0    129.2       43    217.9    172.8       80     0.000     0.000     0.000     0.000      107        0       42       25       12       19       12    10.811       53     40.3    4.359   -9.900     1.26    0.000    0.000       26        9     2008  Maize_short_Cahul_6June_NonOptimum_26_MPI.PRM
  Tot(29)        6        6     2009    176.3    588.9   1438.2   387.37      0.0    169.3      7.0      0.0      0.0    132.6       41    237.0    187.7       86     0.000     0.000     0.000     0.000      107        0       42       25        4       23       12    12.101       52     40.6    4.910   -9.900     1.33    0.000    0.000       26        9     2009  Maize_short_Cahul_6June_NonOptimum_26_MPI.PRM
  Tot(30)        6        6     2010    247.1    521.6   1434.9   389.85      0.0    228.6     18.5     34.5      0.0    144.4       58    242.2    189.5       87     0.000     0.000     0.000     0.000      107        0       42       25        7       15        9    13.350       60     40.6    5.418   -9.900     1.40    0.000    0.000       26        9     2010  Maize_short_Cahul_6June_NonOptimum_26_MPI.PRM
  Tot(31)        6        6     2011    144.1    558.1   1426.3   391.63      0.0    132.7     11.4     12.7      0.0    119.0       40    215.7    171.5       81     0.000     0.000     0.000     0.000      104        0       42       25        3       20       18    10.932       46     40.0    4.370   -9.900     1.31    0.000    0.000       26        9     2011  Maize_short_Cahul_6June_NonOptimum_26_MPI.PRM
  Tot(32)        6        6     2012    172.7    628.8   1504.7   393.82      0.0    166.6      6.1      6.3      0.0    136.7       36    225.7    180.3       82     0.000     0.000     0.000     0.000      107        0       42       25        3       30       14    10.719       46     40.3    4.319   -9.900     1.19    0.000    0.000       26        9     2012  Maize_short_Cahul_6June_NonOptimum_26_MPI.PRM
  Tot(33)        6        6     2013    278.4    535.9   1388.7   396.48      0.0    252.5     25.9     25.8      0.0    138.7       51    237.0    186.7       89     0.000     0.000     0.000     0.000      107        0       42       25        8       19        6    13.333       61     40.7    5.431   -9.900     1.45    0.000    0.000       26        9     2013  Maize_short_Cahul_6June_NonOptimum_26_MPI.PRM
  Tot(34)        6        6     2014    153.0    567.9   1422.4   398.55      0.0    152.8      0.2      0.0      0.0    140.1       49    227.5    180.3       79     0.000     0.000     0.000     0.000      107        0       42       25        6       23       20    11.308       50     39.8    4.503   -9.900     1.23    0.000    0.000       26        9     2014  Maize_short_Cahul_6June_NonOptimum_26_MPI.PRM
  Tot(35)        6        6     2015    140.8    604.0   1480.5   401.00      0.0    138.4      2.4      0.1      0.0    131.6       39    216.4    172.7       78     0.000     0.000     0.000     0.000      107        0       42       25        3       29       19    10.423       44     40.3    4.202   -9.900     1.21    0.000    0.000       26        9     2015  Maize_short_Cahul_6June_NonOptimum_26_MPI.PRM
  Tot(36)        6        6     2016    168.2    577.0   1458.2   403.00      0.0    155.6     12.6      0.1      0.0    129.7       38    195.0    156.2       81     0.000     0.000     0.000     0.000      107        0       42       25        7       28       16     9.591       43     40.3    3.866   -9.900     1.19    0.000    0.000       26        9     2016  Maize_short_Cahul_6June_NonOptimum_26_MPI.PRM
  Tot(37)        6        6     2017    233.5    561.6   1453.7   405.00      0.0    202.3     31.2      8.2      0.0    137.4       53    277.3    215.7       88     0.000     0.000     0.000     0.000      107        0       42       25        4        6       13    14.269       61     39.7    5.663   -9.900     1.37    0.000    0.000       26        9     2017  Maize_short_Cahul_6June_NonOptimum_26_MPI.PRM
  Tot(38)        6        6     2018    165.7    536.5   1498.9   408.00      0.0    161.3      4.4      0.0      0.0    114.1       46    258.3    201.3       87     0.000     0.000     0.000     0.000      107        0       42       25        4        5       13    14.014       60     39.8    5.575   -9.900     1.50    0.000    0.000       26        9     2018  Maize_short_Cahul_6June_NonOptimum_26_MPI.PRM
  Tot(39)        6        6     2019    147.0    605.5   1482.4   410.00      0.0    144.2      2.8      0.6      0.0    138.0       39    196.3    155.7       78     0.000     0.000     0.000     0.000       98        0       42       25        1       22       19     9.627       42     34.8    3.352   -9.900     1.01    0.000    0.000       26        9     2019  Maize_short_Cahul_6June_NonOptimum_26_MPI.PRM
  Tot(40)        6        6     2020    165.9    453.3   1161.6   412.00      0.0    161.4      4.5      1.9      0.0    129.1       60    216.9    170.1       97     0.000     0.000     0.000     0.000      107        0       42       25       16       19        2    13.717       69     40.7    5.578   -9.900     1.61    0.000    0.000       26        9     2020  Maize_short_Cahul_6June_NonOptimum_26_MPI.PRM
  Tot(41)        6        6     2021    129.1    466.0   1163.6   414.00      0.0    123.8      5.3      0.0      0.0     74.9       34    237.2    185.0       99     0.000     0.000     0.000     0.000      107        0       42       25       14        5        1    15.414       72     40.1    6.178   -9.900     1.98    0.000    0.000       26        9     2021  Maize_short_Cahul_6June_NonOptimum_26_MPI.PRM
  Tot(42)        6        6     2022    124.7    507.9   1186.2   417.00      0.0    123.0      1.7      6.8      0.0    117.6       47    206.1    163.0       84     0.000     0.000     0.000     0.000      107        0       42       25       14       26       13    11.408       54     40.7    4.642   -9.900     1.43    0.000    0.000       26        9     2022  Maize_short_Cahul_6June_NonOptimum_26_MPI.PRM
  Tot(43)        6        6     2023    148.6    541.3   1285.4   419.00      0.0    143.7      4.9      0.0      0.0    108.8       34    201.2    160.4       88     0.000     0.000     0.000     0.000      107        0       42       25       11       26        9    11.570       54     40.6    4.699   -9.900     1.52    0.000    0.000       26        9     2023  Maize_short_Cahul_6June_NonOptimum_26_MPI.PRM
  Tot(44)        6        6     2024    150.5    490.5   1191.2   421.00      0.0    150.2      0.3      0.0      0.0     94.6       41    255.4    198.4       98     0.000     0.000     0.000     0.000      107        0       42       25       11        8        2    15.608       70     40.2    6.277   -9.900     1.79    0.000    0.000       26        9     2024  Maize_short_Cahul_6June_NonOptimum_26_MPI.PRM
  Tot(45)        6        6     2025    122.1    485.9   1212.6   423.00      0.0    120.5      1.6      0.0      0.0     81.6       29    201.6    158.9       99     0.000     0.000     0.000     0.000      107        0       42       25       15       17        0    13.520       68     40.7    5.496   -9.900     1.94    0.000    0.000       26        9     2025  Maize_short_Cahul_6June_NonOptimum_26_MPI.PRM
  Tot(46)        6        6     2026    168.5    520.1   1175.8   424.00      0.0    164.6      3.9      2.2      0.0    112.4       45    231.5    181.6       90     0.000     0.000     0.000     0.000      107        0       42       25       15       11        6    13.021       63     40.2    5.239   -9.900     1.52    0.000    0.000       26        9     2026  Maize_short_Cahul_6June_NonOptimum_26_MPI.PRM
  Tot(47)        6        6     2027    137.9    448.5   1133.6   426.00      0.0    137.6      0.3      0.0      0.0     94.9       45    226.7    175.7       98     0.000     0.000     0.000     0.000      107        0       42       25       16        7        1    15.211       72     40.3    6.128   -9.900     1.91    0.000    0.000       26        9     2027  Maize_short_Cahul_6June_NonOptimum_26_MPI.PRM
  Tot(48)        6        6     2028    182.4    431.9   1082.2   428.00      0.0    177.8      4.6      8.8      0.0     96.8       49    222.4    172.1      100     0.000     0.000     0.000     0.000      107        0       42       25       16        2        0    15.712       74     40.0    6.287   -9.900     1.97    0.000    0.000       26        9     2028  Maize_short_Cahul_6June_NonOptimum_26_MPI.PRM
  Tot(49)        6        6     2029    163.8    448.5   1076.9   429.00      0.0    157.5      6.3     11.9      0.0    104.8       52    222.6    174.4       97     0.000     0.000     0.000     0.000      107        0       42       25       19       12        2    13.778       71     40.7    5.604   -9.900     1.71    0.000    0.000       26        9     2029  Maize_short_Cahul_6June_NonOptimum_26_MPI.PRM
  Tot(50)        6        6     2030    113.8    541.3   1200.8   431.00      0.0    113.2      0.6      0.0      0.0    122.6       40    179.6    143.7       78     0.000     0.000     0.000     0.000      107        0       42       25       15       26       16     8.949       43     40.4    3.613   -9.900     1.20    0.000    0.000       26        9     2030  Maize_short_Cahul_6June_NonOptimum_26_MPI.PRM
  Tot(51)        6        6     2031    153.7    474.1   1145.9   432.00      0.0    152.3      1.4      0.0      0.0     99.9       40    202.2    157.5      100     0.000     0.000     0.000     0.000      107        0       42       25       18        8        0    13.531       72     40.2    5.437   -9.900     1.80    0.000    0.000       26        9     2031  Maize_short_Cahul_6June_NonOptimum_26_MPI.PRM
  Tot(52)        6        6     2032    128.2    471.8   1085.4   433.00      0.0    115.5     12.7     12.3      0.0    105.4       48    204.3    160.2       91     0.000     0.000     0.000     0.000      107        0       42       25       20       14       10    12.215       65     40.4    4.930   -9.900     1.59    0.000    0.000       26        9     2032  Maize_short_Cahul_6June_NonOptimum_26_MPI.PRM
  Tot(53)        6        6     2033    278.3    423.0   1020.0   435.00      0.0    223.3     55.0     45.7      0.0    125.9       69    209.1    162.3      100     0.000     0.000     0.000     0.000      107        0       42       25       21        2        0    14.329       75     40.1    5.739   -9.900     1.71    0.000    0.000       26        9     2033  Maize_short_Cahul_6June_NonOptimum_26_MPI.PRM
  Tot(54)        6        6     2034    209.7    481.8   1233.0   436.00      0.0    202.1      7.6      0.0      0.0    118.9       48    230.0    178.9       99     0.000     0.000     0.000     0.000      107        0       42       25       13       16        0    14.832       71     40.7    6.040   -9.900     1.73    0.000    0.000       26        9     2034  Maize_short_Cahul_6June_NonOptimum_26_MPI.PRM
  Tot(55)        6        6     2035    196.4    484.1   1188.9   437.00      0.0    178.9     17.5      2.1      0.0    107.2       45    224.6    175.9       93     0.000     0.000     0.000     0.000      107        0       42       25       13       11        4    14.155       66     40.4    5.722   -9.900     1.72    0.000    0.000       26        9     2035  Maize_short_Cahul_6June_NonOptimum_26_MPI.PRM
  Tot(56)        6        6     2036    164.7    448.9   1152.5   438.00      0.0    161.7      3.0      3.5      0.0     90.0       42    222.1    173.9      100     0.000     0.000     0.000     0.000      107        0       42       25       16        5        0    15.228       74     40.1    6.111   -9.900     1.96    0.000    0.000       26        9     2036  Maize_short_Cahul_6June_NonOptimum_26_MPI.PRM
  Tot(57)        6        6     2037    225.6    430.5   1119.1   438.00      0.0    204.5     21.1     23.9      0.0    113.3       55    218.9    169.7      100     0.000     0.000     0.000     0.000      107        0       42       25       16        4        0    16.045       75     40.2    6.443   -9.900     1.94    0.000    0.000       26        9     2037  Maize_short_Cahul_6June_NonOptimum_26_MPI.PRM
  Tot(58)        6        6     2038    165.6    475.6   1162.2   439.00      0.0    161.3      4.3      0.0      0.0     81.5       34    221.9    173.4      100     0.000     0.000     0.000     0.000      107        0       42       25       17        5        0    14.479       73     40.1    5.808   -9.900     1.91    0.000    0.000       26        9     2038  Maize_short_Cahul_6June_NonOptimum_26_MPI.PRM
  Tot(59)        6        6     2039    119.8    529.0   1213.6   440.00      0.0    114.6      5.2      0.0      0.0    100.2       33    215.5    172.5       94     0.000     0.000     0.000     0.000      107        0       42       25       12       31        5    12.509       58     40.9    5.115   -9.900     1.62    0.000    0.000       26        9     2039  Maize_short_Cahul_6June_NonOptimum_26_MPI.PRM
  Tot(60)        6        6     2040     60.1    549.6   1254.6   440.00      0.0     60.0      0.1      0.0      0.0     79.4       24    174.9    140.2       81     0.000     0.000     0.000     0.000      100        0       42       25        5       28       17     9.364       41     37.2    3.488   -9.900     1.38    0.000    0.000       26        9     2040  Maize_short_Cahul_6June_NonOptimum_26_MPI.PRM
  Tot(61)        6        6     2041    224.1    526.6   1173.9   441.00      0.0    194.6     29.5     15.6      0.0    120.3       42    185.8    148.3       80     0.000     0.000     0.000     0.000      107        0       42       25       16       29       11     9.599       47     40.6    3.896   -9.900     1.27    0.000    0.000       26        9     2041  Maize_short_Cahul_6June_NonOptimum_26_MPI.PRM
  Tot(62)        6        6     2042    208.8    442.7   1141.1   441.00      0.0    192.5     16.3      3.4      0.0     99.3       44    211.0    165.4      100     0.000     0.000     0.000     0.000      107        0       42       25       12       13        0    15.403       72     40.5    6.235   -9.900     2.01    0.000    0.000       26        9     2042  Maize_short_Cahul_6June_NonOptimum_26_MPI.PRM
  Tot(63)        6        6     2043    157.8    448.3   1038.8   441.00      0.0    154.1      3.7      2.4      0.0    115.2       54    202.1    157.8       93     0.000     0.000     0.000     0.000      107        0       42       25       23       13        5    12.691       66     40.5    5.144   -9.900     1.62    0.000    0.000       26        9     2043  Maize_short_Cahul_6June_NonOptimum_26_MPI.PRM
  Tot(64)        6        6     2044    322.2    391.5   1049.2   442.00      0.0    297.7     24.5     24.6      0.0    113.2       59    176.2    137.8      100     0.000     0.000     0.000     0.000      107        0       42       25       24        2        0    14.041       75     40.0    5.618   -9.900     1.94    0.000    0.000       26        9     2044  Maize_short_Cahul_6June_NonOptimum_26_MPI.PRM
  Tot(65)        6        6     2045    191.5    446.1   1213.0   442.00      0.0    186.2      5.3      0.0      0.0    104.5       51    238.7    184.6      100     0.000     0.000     0.000     0.000      107        0       42       25       10        3        0    16.593       74     40.1    6.652   -9.900     1.94    0.000    0.000       26        9     2045  Maize_short_Cahul_6June_NonOptimum_26_MPI.PRM
  Tot(66)        6        6     2046    132.3    434.5   1149.4   442.00      0.0    131.8      0.5      0.0      0.0     82.0       40    214.8    167.8      100     0.000     0.000     0.000     0.000      107        0       42       25       15        6        0    15.008       73     40.2    6.035   -9.900     2.03    0.000    0.000       26        9     2046  Maize_short_Cahul_6June_NonOptimum_26_MPI.PRM
  Tot(67)        6        6     2047    193.1    462.7   1230.8   442.00      0.0    183.7      9.4      4.6      0.0     94.3       44    242.2    189.3       95     0.000     0.000     0.000     0.000      107        0       42       25       10        6        3    15.733       69     40.1    6.306   -9.900     1.87    0.000    0.000       26        9     2047  Maize_short_Cahul_6June_NonOptimum_26_MPI.PRM
  Tot(68)        6        6     2048    175.3    478.6   1244.5   442.00      0.0    166.7      8.6      0.0      0.0    104.0       44    247.7    191.8      100     0.000     0.000     0.000     0.000      107        0       42       25        8        6        0    16.803       73     40.0    6.727   -9.900     1.91    0.000    0.000       26        9     2048  Maize_short_Cahul_6June_NonOptimum_26_MPI.PRM
  Tot(69)        6        6     2049    113.3    547.9   1192.2   443.00      0.0    113.2      0.1      0.0      0.0     90.8       30    223.3    177.8       93     0.000     0.000     0.000     0.000      107        0       42       25       15       24        7    12.529       61     40.6    5.083   -9.900     1.62    0.000    0.000       26        9     2049  Maize_short_Cahul_6June_NonOptimum_26_MPI.PRM
  Tot(70)        6        6     2050    160.6    461.9   1109.9   443.00      0.0    157.3      3.3      4.1      0.0    113.4       53    222.8    174.4      100     0.000     0.000     0.000     0.000      107        0       42       25       19        7        0    14.284       74     40.2    5.745   -9.900     1.71    0.000    0.000       26        9     2050  Maize_short_Cahul_6June_NonOptimum_26_MPI.PRM
  Tot(71)        6        6     2051    162.0    470.7   1160.2   443.00      0.0    157.4      4.6      2.6      0.0    108.4       47    219.5    171.6       93     0.000     0.000     0.000     0.000      107        0       42       25       12       12        4    14.283       66     40.4    5.774   -9.900     1.76    0.000    0.000       26        9     2051  Maize_short_Cahul_6June_NonOptimum_26_MPI.PRM
  Tot(72)        6        6     2052    141.5    445.8   1099.0   443.00      0.0    141.0      0.5      0.0      0.0     77.1       32    182.7    142.6      100     0.000     0.000     0.000     0.000      107        0       42       25       19        8        0    13.551       71     40.1    5.428   -9.900     2.09    0.000    0.000       26        9     2052  Maize_short_Cahul_6June_NonOptimum_26_MPI.PRM
  Tot(73)        6        6     2053     99.8    499.1   1195.9   443.00      0.0     99.7      0.1      0.0      0.0     75.5       33    233.0    181.8       90     0.000     0.000     0.000     0.000      107        0       42       25       13        9        8    13.819       64     40.3    5.565   -9.900     1.80    0.000    0.000       26        9     2053  Maize_short_Cahul_6June_NonOptimum_26_MPI.PRM
  Tot(74)        6        6     2054    199.7    469.6   1180.7   443.00      0.0    196.9      2.8      0.0      0.0    118.1       53    244.0    190.5       99     0.000     0.000     0.000     0.000      107        0       42       25       14        6        1    15.708       73     40.3    6.330   -9.900     1.75    0.000    0.000       26        9     2054  Maize_short_Cahul_6June_NonOptimum_26_MPI.PRM
  Tot(75)        6        6     2055    103.1    524.0   1258.3   443.00      0.0    103.0      0.1      0.0      0.0     83.5       31    229.5    180.5       90     0.000     0.000     0.000     0.000      107        0       42       25       10       17        9    13.243       60     40.5    5.360   -9.900     1.71    0.000    0.000       26        9     2055  Maize_short_Cahul_6June_NonOptimum_26_MPI.PRM
  Tot(76)        6        6     2056     88.4    512.2   1217.9   442.00      0.0     88.1      0.3      0.6      0.0    102.3       39    203.3    161.2       83     0.000     0.000     0.000     0.000      107        0       42       25       12       15       17    11.763       53     39.7    4.670   -9.900     1.53    0.000    0.000       26        9     2056  Maize_short_Cahul_6June_NonOptimum_26_MPI.PRM
  Tot(77)        6        6     2057    114.0    504.7   1259.5   442.00      0.0    111.5      2.5      1.0      0.0    106.6       45    221.0    172.1       83     0.000     0.000     0.000     0.000      107        0       42       25        9       12       13    13.163       57     40.1    5.278   -9.900     1.61    0.000    0.000       26        9     2057  Maize_short_Cahul_6June_NonOptimum_26_MPI.PRM
  Tot(78)        6        6     2058    136.4    545.5   1262.4   442.00      0.0    134.8      1.6      0.0      0.0     90.9       28    217.6    172.3       97     0.000     0.000     0.000     0.000      107        0       42       25       14       22        1    13.073       64     40.8    5.336   -9.900     1.73    0.000    0.000       26        9     2058  Maize_short_Cahul_6June_NonOptimum_26_MPI.PRM
  Tot(79)        6        6     2059    314.1    443.7   1197.8   442.00      0.0    247.5     66.6     10.7      0.0    103.8       46    208.8    163.1      100     0.000     0.000     0.000     0.000      107        0       42       25       14        5        0    14.867       73     40.1    5.961   -9.900     1.91    0.000    0.000       26        9     2059  Maize_short_Cahul_6June_NonOptimum_26_MPI.PRM
  Tot(80)        6        6     2060    131.0    469.0   1260.4   442.00      0.0    125.6      5.4     14.4      0.0     94.1       44    216.7    169.8       85     0.000     0.000     0.000     0.000      107        0       42       25       12       18       11    13.280       60     40.6    5.392   -9.900     1.73    0.000    0.000       26        9     2060  Maize_short_Cahul_6June_NonOptimum_26_MPI.PRM
  Tot(81)        6        6     2061    257.2    469.5   1218.6   441.00      0.0    191.9     65.3     33.3      0.0     87.8       37    233.0    181.8       99     0.000     0.000     0.000     0.000      107        0       42       25       11        7        0    15.582       72     40.1    6.255   -9.900     1.95    0.000    0.000       26        9     2061  Maize_short_Cahul_6June_NonOptimum_26_MPI.PRM
  Tot(82)        6        6     2062    158.7    405.1    978.6   441.00      0.0    156.8      1.9      3.8      0.0    112.3       66    202.4    156.5      100     0.000     0.000     0.000     0.000      107        0       42       25       24        2        0    14.020       75     40.1    5.616   -9.900     1.78    0.000    0.000       26        9     2062  Maize_short_Cahul_6June_NonOptimum_26_MPI.PRM
  Tot(83)        6        6     2063    189.3    487.1   1230.7   441.00      0.0    177.9     11.4      8.1      0.0    105.0       41    231.7    180.1      100     0.000     0.000     0.000     0.000      107        0       42       25       12       11        0    15.465       72     40.4    6.242   -9.900     1.85    0.000    0.000       26        9     2063  Maize_short_Cahul_6June_NonOptimum_26_MPI.PRM
  Tot(84)        6        6     2064    208.2    479.7   1170.8   440.00      0.0    197.3     10.9     17.5      0.0    109.5       46    225.8    178.2       97     0.000     0.000     0.000     0.000      107        0       42       25       16       16        3    14.679       70     40.6    5.964   -9.900     1.78    0.000    0.000       26        9     2064  Maize_short_Cahul_6June_NonOptimum_26_MPI.PRM
  Tot(85)        6        6     2065    336.7    373.3   1059.3   440.00      0.0    267.5     69.2      0.0      0.0     95.3       53    185.2    143.5      100     0.000     0.000     0.000     0.000      107        0       42       25       20        1        0    15.213       75     40.0    6.086   -9.900     2.17    0.000    0.000       26        9     2065  Maize_short_Cahul_6June_NonOptimum_26_MPI.PRM
  Tot(86)        6        6     2066    253.6    456.4   1100.7   440.00      0.0    229.0     24.6      0.0      0.0    118.9       54    222.7    172.8      100     0.000     0.000     0.000     0.000      107        0       42       25       18        3        0    14.818       75     40.1    5.948   -9.900     1.74    0.000    0.000       26        9     2066  Maize_short_Cahul_6June_NonOptimum_26_MPI.PRM
  Tot(87)        6        6     2067    243.5    382.5    998.2   439.00      0.0    216.0     27.5      0.4      0.0     96.3       55    181.3    141.2      100     0.000     0.000     0.000     0.000      107        0       42       25       22        4        0    14.292       75     40.0    5.720   -9.900     2.06    0.000    0.000       26        9     2067  Maize_short_Cahul_6June_NonOptimum_26_MPI.PRM
  Tot(88)        6        6     2068    132.1    435.3   1068.0   439.00      0.0    130.6      1.5      0.0      0.0     85.5       41    205.0    158.5      100     0.000     0.000     0.000     0.000      107        0       42       25       22        8        0    13.520       73     40.3    5.443   -9.900     1.87    0.000    0.000       26        9     2068  Maize_short_Cahul_6June_NonOptimum_26_MPI.PRM
  Tot(89)        6        6     2069    241.7    443.7   1221.3   438.00      0.0    234.9      6.8      1.5      0.0    126.5       59    227.1    178.2      100     0.000     0.000     0.000     0.000      107        0       42       25       13        2        0    15.714       75     40.0    6.288   -9.900     1.78    0.000    0.000       26        9     2069  Maize_short_Cahul_6June_NonOptimum_26_MPI.PRM
  Tot(90)        6        6     2070    126.1    488.4   1178.3   437.00      0.0    125.1      1.0      0.3      0.0     94.0       35    206.3    161.6      100     0.000     0.000     0.000     0.000      107        0       42       25       17       17        0    13.462       70     40.5    5.446   -9.900     1.81    0.000    0.000       26        9     2070  Maize_short_Cahul_6June_NonOptimum_26_MPI.PRM
  Tot(91)        6        6     2071    158.0    526.5   1301.2   437.00      0.0    138.5     19.5     14.4      0.0    104.4       40    236.9    187.5       86     0.000     0.000     0.000     0.000      107        0       42       25        5       23       12    13.502       58     40.6    5.480   -9.900     1.61    0.000    0.000       26        9     2071  Maize_short_Cahul_6June_NonOptimum_26_MPI.PRM
  Tot(92)        6        6     2072    200.0    509.1   1263.4   436.00      0.0    186.2     13.8     13.5      0.0    118.2       47    212.7    168.2       84     0.000     0.000     0.000     0.000      107        0       42       25       11       24       12    11.880       54     40.6    4.828   -9.900     1.46    0.000    0.000       26        9     2072  Maize_short_Cahul_6June_NonOptimum_26_MPI.PRM
  Tot(93)        6        6     2073    252.8    489.2   1221.9   436.00      0.0    191.5     61.3     34.3      0.0     95.1       38    210.4    166.1       90     0.000     0.000     0.000     0.000      107        0       42       25       13       20        7    12.592       60     40.7    5.120   -9.900     1.68    0.000    0.000       26        9     2073  Maize_short_Cahul_6June_NonOptimum_26_MPI.PRM
  Tot(94)        6        6     2074    149.2    456.4   1177.9   435.00      0.0    146.4      2.8      0.0      0.0     83.6       33    193.9    151.3      100     0.000     0.000     0.000     0.000      107        0       42       25       18       14        0    13.496       70     40.3    5.440   -9.900     1.96    0.000    0.000       26        9     2074  Maize_short_Cahul_6June_NonOptimum_26_MPI.PRM
  Tot(95)        6        6     2075    199.5    485.6   1222.8   435.00      0.0    190.2      9.3     11.5      0.0     97.0       44    262.5    204.0      100     0.000     0.000     0.000     0.000      107        0       42       25       12        4        0    16.421       74     40.2    6.594   -9.900     1.83    0.000    0.000       26        9     2075  Maize_short_Cahul_6June_NonOptimum_26_MPI.PRM
  Tot(96)        6        6     2076    190.9    519.3   1249.8   434.00      0.0    174.4     16.5     12.7      0.0     89.3       34    244.5    190.8      100     0.000     0.000     0.000     0.000      107        0       42       25       14        6        0    14.588       72     40.1    5.857   -9.900     1.75    0.000    0.000       26        9     2076  Maize_short_Cahul_6June_NonOptimum_26_MPI.PRM
  Tot(97)        6        6     2077    140.8    528.1   1258.8   433.00      0.0    137.2      3.6      9.8      0.0    116.7       44    222.7    175.7       83     0.000     0.000     0.000     0.000      107        0       42       25       10       18       14    12.676       56     40.3    5.108   -9.900     1.50    0.000    0.000       26        9     2077  Maize_short_Cahul_6June_NonOptimum_26_MPI.PRM
  Tot(98)        6        6     2078    168.7    471.2   1200.9   433.00      0.0    162.2      6.5      0.0      0.0     97.8       43    235.3    183.7       97     0.000     0.000     0.000     0.000      107        0       42       25       14       10        2    14.901       69     40.1    5.971   -9.900     1.79    0.000    0.000       26        9     2078  Maize_short_Cahul_6June_NonOptimum_26_MPI.PRM
  Tot(99)        6        6     2079    190.9    432.3   1102.6   432.00      0.0    173.0     17.9      4.9      0.0    109.8       52    206.6    163.1       96     0.000     0.000     0.000     0.000      107        0       42       25       14       14        2    14.767       69     40.5    5.987   -9.900     1.89    0.000    0.000       26        9     2079  Maize_short_Cahul_6June_NonOptimum_26_MPI.PRM
 Tot(100)        6        6     2080    143.2    479.8   1188.9   432.00      0.0    138.3      4.9      2.1      0.0    101.2       44    224.3    175.6       90     0.000     0.000     0.000     0.000      107        0       42       25       14       14        7    13.786       63     40.5    5.589   -9.900     1.72    0.000    0.000       26        9     2080  Maize_short_Cahul_6June_NonOptimum_26_MPI.PRM
 Tot(101)        6        6     2081    235.1    445.4   1157.0   431.00      0.0    205.9     29.2     38.9      0.0     99.0       50    227.0    178.1       95     0.000     0.000     0.000     0.000      107        0       42       25       16       16        5    14.499       68     40.7    5.898   -9.900     1.81    0.000    0.000       26        9     2081  Maize_short_Cahul_6June_NonOptimum_26_MPI.PRM
 Tot(102)        6        6     2082    136.6    495.2   1206.1   431.00      0.0    126.3     10.3      0.0      0.0     91.9       37    219.9    174.0       90     0.000     0.000     0.000     0.000      107        0       42       25       13       25        6    13.186       59     40.8    5.379   -9.900     1.73    0.000    0.000       26        9     2082  Maize_short_Cahul_6June_NonOptimum_26_MPI.PRM
 Tot(103)        6        6     2083    110.0    505.6   1232.6   430.00      0.0    109.5      0.5      0.0      0.0    104.2       41    218.1    171.1       87     0.000     0.000     0.000     0.000      107        0       42       25        9       16       12    12.627       57     40.5    5.108   -9.900     1.59    0.000    0.000       26        9     2083  Maize_short_Cahul_6June_NonOptimum_26_MPI.PRM
 Tot(104)        6        6     2084    235.9    452.0   1172.7   429.00      0.0    217.4     18.5     13.8      0.0    118.9       58    240.8    187.0       99     0.000     0.000     0.000     0.000      107        0       42       25       14       10        1    15.384       72     40.6    6.242   -9.900     1.74    0.000    0.000       26        9     2084  Maize_short_Cahul_6June_NonOptimum_26_MPI.PRM
 Tot(105)        6        6     2085    154.2    444.6   1099.5   429.00      0.0    152.5      1.7      0.0      0.0     87.1       41    221.0    172.1      100     0.000     0.000     0.000     0.000      107        0       42       25       18        4        0    14.776       74     40.1    5.932   -9.900     1.92    0.000    0.000       26        9     2085  Maize_short_Cahul_6June_NonOptimum_26_MPI.PRM
 Tot(106)        6        6     2086    259.6    430.7   1129.8   428.00      0.0    219.3     40.3     69.4      0.0    121.4       65    201.6    158.3       88     0.000     0.000     0.000     0.000      107        0       42       25       18       14       10    12.174       62     40.6    4.944   -9.900     1.53    0.000    0.000       26        9     2086  Maize_short_Cahul_6June_NonOptimum_26_MPI.PRM
 Tot(107)        6        6     2087    162.9    483.9   1234.8   428.00      0.0    161.3      1.6      0.0      0.0    100.9       42    241.5    187.3       99     0.000     0.000     0.000     0.000      107        0       42       25        9        5        1    15.933       72     40.1    6.381   -9.900     1.86    0.000    0.000       26        9     2087  Maize_short_Cahul_6June_NonOptimum_26_MPI.PRM
 Tot(108)        6        6     2088     54.9    566.6   1364.0   427.00      0.0     54.8      0.1      0.0      0.0     78.4       25    191.5    151.9       78     0.000     0.000     0.000     0.000       99        0       42       25        5       21       19     9.861       42     36.1    3.555   -9.900     1.32    0.000    0.000       26        9     2088  Maize_short_Cahul_6June_NonOptimum_26_MPI.PRM
 Tot(109)        6        6     2089    222.4    413.7   1033.2   427.00      0.0    204.5     17.9     24.9      0.0    113.8       67    223.8    172.7      100     0.000     0.000     0.000     0.000      107        0       42       25       20        1        0    14.869       75     40.1    5.956   -9.900     1.76    0.000    0.000       26        9     2089  Maize_short_Cahul_6June_NonOptimum_26_MPI.PRM
 Tot(110)        6        6     2090    167.8    461.9   1074.3   426.00      0.0    165.9      1.9      0.0      0.0    104.9       47    216.4    168.6      100     0.000     0.000     0.000     0.000      107        0       42       25       19        7        0    13.809       73     40.3    5.563   -9.900     1.73    0.000    0.000       26        9     2090  Maize_short_Cahul_6June_NonOptimum_26_MPI.PRM
 Tot(111)        6        6     2091    132.5    540.7   1392.6   425.00      0.0    131.6      0.9      0.2      0.0    128.1       48    215.6    170.9       78     0.000     0.000     0.000     0.000      107        0       42       25        6       18       17    11.834       50     40.2    4.752   -9.900     1.38    0.000    0.000       26        9     2091  Maize_short_Cahul_6June_NonOptimum_26_MPI.PRM
 Tot(112)        6        6     2092    262.8    413.9   1042.0   425.00      0.0    233.7     29.1      0.0      0.0     92.1       42    173.3    136.1      100     0.000     0.000     0.000     0.000      107        0       42       25       22        9        0    13.056       73     40.2    5.254   -9.900     1.98    0.000    0.000       26        9     2092  Maize_short_Cahul_6June_NonOptimum_26_MPI.PRM
 Tot(113)        6        6     2093    299.8    436.0   1059.1   424.00      0.0    277.7     22.1     18.2      0.0    107.0       51    206.6    160.8      100     0.000     0.000     0.000     0.000      107        0       42       25       22        3        0    13.683       74     40.1    5.480   -9.900     1.75    0.000    0.000       26        9     2093  Maize_short_Cahul_6June_NonOptimum_26_MPI.PRM
 Tot(114)        6        6     2094    146.8    548.5   1256.6   424.00      0.0    143.9      2.9      0.0      0.0    110.0       40    227.9    180.5       85     0.000     0.000     0.000     0.000      107        0       42       25       14       25        8    11.659       56     40.7    4.747   -9.900     1.40    0.000    0.000       26        9     2094  Maize_short_Cahul_6June_NonOptimum_26_MPI.PRM
 Tot(115)        6        6     2095    112.5    516.8   1214.6   423.00      0.0    112.5      0.0      0.0      0.0    107.5       35    189.7    151.0       91     0.000     0.000     0.000     0.000      107        0       42       25       16       23        5    11.783       60     40.6    4.790   -9.900     1.61    0.000    0.000       26        9     2095  Maize_short_Cahul_6June_NonOptimum_26_MPI.PRM
 Tot(116)        6        6     2096    113.0    567.9   1402.6   423.00      0.0    112.1      0.9      0.0      0.0     98.9       32    212.8    169.6       81     0.000     0.000     0.000     0.000      107        0       42       25        5       30       13    10.878       47     40.6    4.415   -9.900     1.42    0.000    0.000       26        9     2096  Maize_short_Cahul_6June_NonOptimum_26_MPI.PRM
 Tot(117)        6        6     2097    188.2    448.8   1188.0   422.00      0.0    177.3     10.9     13.3      0.0     97.6       52    249.5    195.2       95     0.000     0.000     0.000     0.000      107        0       42       25       11       16        3    15.366       68     40.8    6.271   -9.900     1.81    0.000    0.000       26        9     2097  Maize_short_Cahul_6June_NonOptimum_26_MPI.PRM
 Tot(118)        6        6     2098    149.2    450.4   1160.1   422.00      0.0    142.8      6.4     12.0      0.0    105.3       51    226.5    175.7       97     0.000     0.000     0.000     0.000      107        0       42       25       13        4        3    15.229       72     40.1    6.113   -9.900     1.84    0.000    0.000       26        9     2098  Maize_short_Cahul_6June_NonOptimum_26_MPI.PRM
 Tot(119)        6        6     2099    147.5    438.5   1051.6   421.00      0.0    144.7      2.8      0.0      0.0    101.8       54    232.7    180.5       99     0.000     0.000     0.000     0.000      107        0       42       25       17        6        1    15.339       74     40.3    6.179   -9.900     1.85    0.000    0.000       26        9     2099  Maize_short_Cahul_6June_NonOptimum_26_MPI.PRM
