AquaCrop 7.0 (August 2022) - Output created on (date) : 23-11-2022   at (time) : 13:17:29

    RunNr     Day1   Month1    Year1     Rain      ETo       GD     CO2      Irri   Infilt   Runoff    Drain   Upflow        E     E/Ex       Tr      TrW   Tr/Trx    SaltIn   SaltOut    SaltUp  SaltProf     Cycle   SaltStr  FertStr  WeedStr  TempStr   ExpStr   StoStr  BioMass  Brelative   HI    Y(dry)  Y(fresh)    WPet      Bin     Bout     DayN   MonthN    YearN
                                           mm       mm  degC.day    ppm        mm       mm       mm       mm       mm       mm        %       mm       mm        %    ton/ha    ton/ha    ton/ha    ton/ha      days       %        %        %        %        %        %    ton/ha        %       %    ton/ha   ton/ha    kg/m3   ton/ha   ton/ha
   Tot(1)       22        5     1981    112.7    489.0   1247.8   340.11      0.0    112.6      0.1      0.0      0.0     77.0       34    238.7    237.9       91     0.000     0.000     0.000     0.000      107        0        0        0       11        7        7    17.433       84     40.3    7.018   -9.900     2.22    0.000    0.000       11        9     1981  Maize_short_Chisinau_22May_Optimum_26_MOHC.PRM
   Tot(2)       22        5     1982    204.3    456.0   1247.6   341.22      0.0    204.0      0.3      0.0      0.0    113.7       55    257.4    256.0      100     0.000     0.000     0.000     0.000      107        0        0        0        9        2        0    21.170       96     40.0    8.475   -9.900     2.28    0.000    0.000       11        9     1982  Maize_short_Chisinau_22May_Optimum_26_MOHC.PRM
   Tot(3)       22        5     1983    263.2    457.8   1241.5   342.84      0.0    246.8     16.4     28.6      0.0    125.5       63    258.5    258.0      100     0.000     0.000     0.000     0.000      107        0        0        0       10        3        0    20.629       97     40.1    8.273   -9.900     2.15    0.000    0.000       11        9     1983  Maize_short_Chisinau_22May_Optimum_26_MOHC.PRM
   Tot(4)       22        5     1984    214.8    437.7   1110.3   344.40      0.0    211.4      3.4      5.3      0.0    144.1       77    242.9    244.2      100     0.000     0.000     0.000     0.000      107        0        0        0       15        1        0    20.187       97     40.0    8.084   -9.900     2.09    0.000    0.000       11        9     1984  Maize_short_Chisinau_22May_Optimum_26_MOHC.PRM
   Tot(5)       22        5     1985    293.3    457.2   1166.1   345.87      0.0    263.7     29.6     63.9      0.0    122.0       66    263.0    263.4       97     0.000     0.000     0.000     0.000      107        0        0        0       15        2        2    19.571       94     40.1    7.846   -9.900     2.04    0.000    0.000       11        9     1985  Maize_short_Chisinau_22May_Optimum_26_MOHC.PRM
   Tot(6)       22        5     1986    182.0    520.8   1291.5   347.19      0.0    181.3      0.7      0.0      0.0    116.4       50    270.7    270.6       93     0.000     0.000     0.000     0.000      107        0        0        0        9        5        6    18.952       89     40.1    7.598   -9.900     1.96    0.000    0.000       11        9     1986  Maize_short_Chisinau_22May_Optimum_26_MOHC.PRM
   Tot(7)       22        5     1987    250.7    477.0   1168.0   348.98      0.0    236.4     14.3     17.7      0.0    107.9       54    270.4    269.5      100     0.000     0.000     0.000     0.000      107        0        0        0       14        5        0    19.631       96     40.3    7.909   -9.900     2.09    0.000    0.000       11        9     1987  Maize_short_Chisinau_22May_Optimum_26_MOHC.PRM
   Tot(8)       22        5     1988    311.4    459.2   1267.4   351.45      0.0    269.3     42.1     29.3      0.0    109.3       61    276.0    277.3       96     0.000     0.000     0.000     0.000      107        0        0        0       10        3        3    19.884       93     40.1    7.978   -9.900     2.07    0.000    0.000       11        9     1988  Maize_short_Chisinau_22May_Optimum_26_MOHC.PRM
   Tot(9)       22        5     1989    328.6    451.3   1181.5   352.89      0.0    298.7     29.9      2.2      0.0    122.8       64    266.6    266.3      100     0.000     0.000     0.000     0.000      107        0        0        0       12        6        0    20.582       96     40.2    8.276   -9.900     2.12    0.000    0.000       11        9     1989  Maize_short_Chisinau_22May_Optimum_26_MOHC.PRM
  Tot(10)       22        5     1990    157.0    493.1   1149.4   354.16      0.0    152.3      4.7     14.4      0.0    127.9       58    226.3    227.4       85     0.000     0.000     0.000     0.000      107        0        0        0       15       11       15    15.823       74     40.0    6.324   -9.900     1.79    0.000    0.000       11        9     1990  Maize_short_Chisinau_22May_Optimum_26_MOHC.PRM
  Tot(11)       22        5     1991    405.5    420.3   1208.7   355.48      0.0    355.8     49.7     77.0      0.0    124.2       75    257.2    255.5      100     0.000     0.000     0.000     0.000      107        0        0        0       12        1        0    21.188       97     40.0    8.484   -9.900     2.22    0.000    0.000       11        9     1991  Maize_short_Chisinau_22May_Optimum_26_MOHC.PRM
  Tot(12)       22        5     1992    188.3    518.5   1278.0   356.27      0.0    184.1      4.2      9.8      0.0    142.9       69    245.6    246.9       80     0.000     0.000     0.000     0.000      107        0        0        0       10       10       15    15.557       70     39.8    6.185   -9.900     1.59    0.000    0.000       11        9     1992  Maize_short_Chisinau_22May_Optimum_26_MOHC.PRM
  Tot(13)       22        5     1993    166.0    491.7   1142.1   356.95      0.0    165.4      0.6      0.6      0.0    100.5       48    257.7    256.2       96     0.000     0.000     0.000     0.000      107        0        0        0       16        3        3    18.197       92     40.1    7.295   -9.900     2.04    0.000    0.000       11        9     1993  Maize_short_Chisinau_22May_Optimum_26_MOHC.PRM
  Tot(14)       22        5     1994    259.6    519.0   1314.2   358.63      0.0    220.5     39.1     11.8      0.0    105.0       44    265.8    265.9       90     0.000     0.000     0.000     0.000      107        0        0        0       10       12        6    18.389       80     40.5    7.438   -9.900     2.01    0.000    0.000       11        9     1994  Maize_short_Chisinau_22May_Optimum_26_MOHC.PRM
  Tot(15)       22        5     1995    240.9    497.5   1341.7   360.62      0.0    225.7     15.2      1.4      0.0     92.6       40    269.9    269.8       96     0.000     0.000     0.000     0.000      107        0        0        0        5        7        2    20.160       90     40.2    8.106   -9.900     2.24    0.000    0.000       11        9     1995  Maize_short_Chisinau_22May_Optimum_26_MOHC.PRM
  Tot(16)       22        5     1996    178.3    510.0   1221.6   362.37      0.0    174.6      3.7      2.9      0.0     99.7       37    225.6    226.8       92     0.000     0.000     0.000     0.000      107        0        0        0       12       18        5    16.759       80     40.6    6.796   -9.900     2.09    0.000    0.000       11        9     1996  Maize_short_Chisinau_22May_Optimum_26_MOHC.PRM
  Tot(17)       22        5     1997    330.1    417.1   1153.3   363.47      0.0    310.1     20.0      0.0      0.0    110.0       60    233.5    233.1      100     0.000     0.000     0.000     0.000      107        0        0        0       13        0        0    20.929       97     40.0    8.371   -9.900     2.44    0.000    0.000       11        9     1997  Maize_short_Chisinau_22May_Optimum_26_MOHC.PRM
  Tot(18)       22        5     1998    213.1    479.8   1242.4   366.50      0.0    207.8      5.3      0.7      0.0    115.1       59    266.4    265.3       95     0.000     0.000     0.000     0.000      107        0        0        0       13        2        3    18.830       92     40.1    7.547   -9.900     1.98    0.000    0.000       11        9     1998  Maize_short_Chisinau_22May_Optimum_26_MOHC.PRM
  Tot(19)       22        5     1999    155.4    516.5   1415.8   368.14      0.0    153.9      1.5      0.0      0.0    105.1       43    252.3    251.9       88     0.000     0.000     0.000     0.000      107        0        0        0        3       15        9    18.251       79     40.5    7.393   -9.900     2.07    0.000    0.000       11        9     1999  Maize_short_Chisinau_22May_Optimum_26_MOHC.PRM
  Tot(20)       22        5     2000    200.0    540.4   1259.7   369.41      0.0    193.4      6.6      0.0      0.0     72.3       28    279.5    280.1       97     0.000     0.000     0.000     0.000      107        0        0        0       12        8        1    19.340       90     40.1    7.751   -9.900     2.20    0.000    0.000       11        9     2000  Maize_short_Chisinau_22May_Optimum_26_MOHC.PRM
  Tot(21)       22        5     2001    281.1    504.5   1316.2   371.07      0.0    245.1     36.0     26.0      0.0    132.2       60    241.5    242.7       84     0.000     0.000     0.000     0.000      107        0        0        0        9        8       12    16.266       71     39.8    6.475   -9.900     1.73    0.000    0.000       11        9     2001  Maize_short_Chisinau_22May_Optimum_26_MOHC.PRM
  Tot(22)       22        5     2002    297.2    513.7   1401.0   373.16      0.0    270.0     27.2      3.8      0.0    111.4       47    297.6    296.9      100     0.000     0.000     0.000     0.000      107        0        0        0        5       10        0    21.695       92     40.0    8.683   -9.900     2.12    0.000    0.000       11        9     2002  Maize_short_Chisinau_22May_Optimum_26_MOHC.PRM
  Tot(23)       22        5     2003    199.3    543.0   1313.0   375.80      0.0    197.8      1.5      0.0      0.0     98.0       37    284.3    283.9       99     0.000     0.000     0.000     0.000      107        0        0        0        8        4        1    20.420       93     40.0    8.176   -9.900     2.14    0.000    0.000       11        9     2003  Maize_short_Chisinau_22May_Optimum_26_MOHC.PRM
  Tot(24)       22        5     2004    212.6    500.0   1203.6   377.49      0.0    201.0     11.6      4.7      0.0    100.0       44    275.9    277.2      100     0.000     0.000     0.000     0.000      107        0        0        0       11        5        0    20.884       95     40.1    8.381   -9.900     2.23    0.000    0.000       11        9     2004  Maize_short_Chisinau_22May_Optimum_26_MOHC.PRM
  Tot(25)       22        5     2005    280.2    489.9   1320.0   379.80      0.0    268.2     12.0      8.5      0.0    136.2       63    286.2    283.8      100     0.000     0.000     0.000     0.000      107        0        0        0        7        4        0    22.353       97     40.3    9.001   -9.900     2.13    0.000    0.000       11        9     2005  Maize_short_Chisinau_22May_Optimum_26_MOHC.PRM
  Tot(26)       22        5     2006    278.5    526.4   1284.9   381.90      0.0    269.3      9.2     16.0      0.0    136.6       60    298.8    300.1       97     0.000     0.000     0.000     0.000      107        0        0        0       10       10        3    20.524       91     40.5    8.318   -9.900     1.91    0.000    0.000       11        9     2006  Maize_short_Chisinau_22May_Optimum_26_MOHC.PRM
  Tot(27)       22        5     2007    161.9    617.8   1470.3   383.77      0.0    161.4      0.5      0.0      0.0    116.1       35    245.5    246.2       83     0.000     0.000     0.000     0.000      107        0        0        0        4       26       12    15.024       65     40.6    6.098   -9.900     1.69    0.000    0.000       11        9     2007  Maize_short_Chisinau_22May_Optimum_26_MOHC.PRM
  Tot(28)       22        5     2008    182.6    561.4   1363.1   385.59      0.0    176.9      5.7      0.0      0.0    116.7       46    277.8    278.1       87     0.000     0.000     0.000     0.000      107        0        0        0        5        9       11    18.297       78     39.7    7.265   -9.900     1.84    0.000    0.000       11        9     2008  Maize_short_Chisinau_22May_Optimum_26_MOHC.PRM
  Tot(29)       22        5     2009    196.0    575.6   1374.3   387.37      0.0    194.3      1.7      0.0      0.0    110.1       41    287.8    285.3       89     0.000     0.000     0.000     0.000      107        0        0        0        5       10        9    18.654       80     40.2    7.495   -9.900     1.88    0.000    0.000       11        9     2009  Maize_short_Chisinau_22May_Optimum_26_MOHC.PRM
  Tot(30)       22        5     2010    257.3    510.9   1415.8   389.85      0.0    240.3     17.0     19.1      0.0    119.7       54    279.4    281.2       93     0.000     0.000     0.000     0.000      107        0        0        0        7        2        4    19.996       89     40.0    7.989   -9.900     2.00    0.000    0.000       11        9     2010  Maize_short_Chisinau_22May_Optimum_26_MOHC.PRM
  Tot(31)       22        5     2011    216.4    549.6   1380.9   391.63      0.0    201.6     14.8     17.5      0.0    132.6       53    266.5    267.1       86     0.000     0.000     0.000     0.000      107        0        0        0        5        6       12    18.207       78     39.8    7.240   -9.900     1.81    0.000    0.000       11        9     2011  Maize_short_Chisinau_22May_Optimum_26_MOHC.PRM
  Tot(32)       22        5     2012    177.6    615.9   1446.5   393.82      0.0    168.8      8.8     12.1      0.0    107.7       37    267.2    267.5       81     0.000     0.000     0.000     0.000      107        0        0        0        4       16       16    15.749       67     40.1    6.316   -9.900     1.68    0.000    0.000       11        9     2012  Maize_short_Chisinau_22May_Optimum_26_MOHC.PRM
  Tot(33)       22        5     2013    299.8    518.6   1351.6   396.48      0.0    269.2     30.6     27.2      0.0    140.8       64    290.2    289.3       94     0.000     0.000     0.000     0.000      107        0        0        0        6        5        4    20.727       90     40.2    8.337   -9.900     1.93    0.000    0.000       11        9     2013  Maize_short_Chisinau_22May_Optimum_26_MOHC.PRM
  Tot(34)       22        5     2014    198.3    560.2   1404.9   398.55      0.0    195.8      2.5      1.7      0.0    113.0       48    296.0    296.3       88     0.000     0.000     0.000     0.000      107        0        0        0        5        6       10    19.295       82     39.9    7.700   -9.900     1.88    0.000    0.000       11        9     2014  Maize_short_Chisinau_22May_Optimum_26_MOHC.PRM
  Tot(35)       22        5     2015    123.3    607.4   1433.1   401.00      0.0    122.9      0.4      0.0      0.0    109.3       35    226.7    227.7       79     0.000     0.000     0.000     0.000      104        0        0        0        5       18       19    13.759       59     40.0    5.501   -9.900     1.64    0.000    0.000       11        9     2015  Maize_short_Chisinau_22May_Optimum_26_MOHC.PRM
  Tot(36)       22        5     2016    224.9    558.8   1444.3   403.00      0.0    206.2     18.7     39.9      0.0    145.6       57    239.5    239.5       80     0.000     0.000     0.000     0.000      107        0        0        0        4       17       19    15.111       63     40.0    6.038   -9.900     1.57    0.000    0.000       11        9     2016  Maize_short_Chisinau_22May_Optimum_26_MOHC.PRM
  Tot(37)       22        5     2017    256.1    554.9   1388.6   405.00      0.0    243.1     13.0      9.7      0.0    125.5       53    314.6    313.1       96     0.000     0.000     0.000     0.000      107        0        0        0        5        4        4    21.145       91     40.1    8.471   -9.900     1.92    0.000    0.000       11        9     2017  Maize_short_Chisinau_22May_Optimum_26_MOHC.PRM
  Tot(38)       22        5     2018    285.1    545.5   1487.3   408.00      0.0    268.7     16.4     20.6      0.0    120.4       48    304.1    304.9       96     0.000     0.000     0.000     0.000      107        0        0        0        3        2        3    21.933       92     39.9    8.762   -9.900     2.06    0.000    0.000       11        9     2018  Maize_short_Chisinau_22May_Optimum_26_MOHC.PRM
  Tot(39)       22        5     2019    214.6    570.8   1477.1   410.00      0.0    207.5      7.1     13.9      0.0    141.2       55    273.3    273.5       85     0.000     0.000     0.000     0.000      107        0        0        0        2       11       12    18.302       77     40.0    7.323   -9.900     1.77    0.000    0.000       11        9     2019  Maize_short_Chisinau_22May_Optimum_26_MOHC.PRM
  Tot(40)       22        5     2020    140.7    640.6   1505.9   412.00      0.0    139.1      1.6      0.0      0.0    119.5       31    169.3    169.8       72     0.000     0.000     0.000     0.000       85        0        0        0       10       31       21     8.388       35     21.8    1.827   -9.900     0.69    0.000    0.000       11        9     2020  Maize_short_Chisinau_22May_Optimum_26_MOHC.PRM
  Tot(41)       22        5     2021     70.4    676.7   1574.9   414.00      0.0     70.3      0.1      0.0      0.0     82.6       20    195.5    195.3       73     0.000     0.000     0.000     0.000      107        0        0        0        2       35       22    10.108       42     40.1    4.058   -9.900     1.46    0.000    0.000       11        9     2021  Maize_short_Chisinau_22May_Optimum_26_MOHC.PRM
  Tot(42)       22        5     2022     56.9    706.9   1647.1   417.00      0.0     56.9      0.0      0.0      0.0     75.6       17    187.9    188.2       73     0.000     0.000     0.000     0.000       91        0        0        0        4       30       20     9.623       39     27.8    2.679   -9.900     1.03    0.000    0.000       11        9     2022  Maize_short_Chisinau_22May_Optimum_26_MOHC.PRM
  Tot(43)       22        5     2023     72.3    723.9   1641.6   419.00      0.0     72.1      0.2      0.0      0.0     95.3       20    172.8    172.8       72     0.000     0.000     0.000     0.000       87        0        0        0        1       32       20     8.580       36     24.1    2.070   -9.900     0.81    0.000    0.000       11        9     2023  Maize_short_Chisinau_22May_Optimum_26_MOHC.PRM
  Tot(44)       22        5     2024    134.9    628.4   1576.8   421.00      0.0    132.0      2.9      1.2      0.0    111.7       39    245.3    245.3       73     0.000     0.000     0.000     0.000      107        0        0        0        2       10       23    14.762       60     38.5    5.677   -9.900     1.59    0.000    0.000       11        9     2024  Maize_short_Chisinau_22May_Optimum_26_MOHC.PRM
  Tot(45)       22        5     2025    101.1    623.0   1451.9   423.00      0.0     97.3      3.8      6.6      0.0     96.0       24    167.5    167.3       74     0.000     0.000     0.000     0.000      107        0        0        0        8       35       14     8.405       36     31.7    2.663   -9.900     1.01    0.000    0.000       11        9     2025  Maize_short_Chisinau_22May_Optimum_26_MOHC.PRM
  Tot(46)       22        5     2026    103.2    728.4   1653.1   424.00      0.0     96.7      6.5      7.0      0.0     82.3       21    221.7    221.9       72     0.000     0.000     0.000     0.000       94        0        0        0        2       21       21    11.114       45     30.3    3.366   -9.900     1.11    0.000    0.000       11        9     2026  Maize_short_Chisinau_22May_Optimum_26_MOHC.PRM
  Tot(47)       22        5     2027     50.3    726.2   1651.2   426.00      0.0     50.3      0.0      0.0      0.0     83.3       17    158.7    158.7       73     0.000     0.000     0.000     0.000       86        0        0        0        1       36       20     7.265       30     18.4    1.338   -9.900     0.56    0.000    0.000       11        9     2027  Maize_short_Chisinau_22May_Optimum_26_MOHC.PRM
  Tot(48)       22        5     2028    152.7    694.7   1584.0   428.00      0.0    142.8      9.9      8.3      0.0    135.7       28    159.2    159.2       74     0.000     0.000     0.000     0.000       85        0        0        0        4       38       19     6.779       28     21.1    1.428   -9.900     0.53    0.000    0.000       11        9     2028  Maize_short_Chisinau_22May_Optimum_26_MOHC.PRM
  Tot(49)       22        5     2029     73.7    646.8   1569.2   429.00      0.0     71.8      1.9      9.4      0.0     83.2       24    183.4    183.4       71     0.000     0.000     0.000     0.000       88        0        0        0        3       26       21     9.682       39     24.6    2.385   -9.900     0.92    0.000    0.000       11        9     2029  Maize_short_Chisinau_22May_Optimum_26_MOHC.PRM
  Tot(50)       22        5     2030     78.9    772.1   1747.1   431.00      0.0     78.4      0.5      0.0      0.0    102.7       20    171.5    171.5       70     0.000     0.000     0.000     0.000       84        0        0        0        0       33       22     7.554       31     20.6    1.559   -9.900     0.58    0.000    0.000       11        9     2030  Maize_short_Chisinau_22May_Optimum_26_MOHC.PRM
  Tot(51)       22        5     2031    101.8    669.6   1614.0   432.00      0.0    101.7      0.1      0.0      0.0    103.1       28    204.6    204.6       73     0.000     0.000     0.000     0.000       93        0        0        0        3       23       21    11.010       45     29.6    3.263   -9.900     1.07    0.000    0.000       11        9     2031  Maize_short_Chisinau_22May_Optimum_26_MOHC.PRM
  Tot(52)       22        5     2032     45.7    762.2   1730.9   433.00      0.0     45.5      0.2      0.0      0.0     76.8       14    158.0    158.0       73     0.000     0.000     0.000     0.000       84        0        0        0        1       37       20     6.866       28     20.9    1.438   -9.900     0.62    0.000    0.000       11        9     2032  Maize_short_Chisinau_22May_Optimum_26_MOHC.PRM
  Tot(53)       22        5     2033    128.3    719.3   1663.9   435.00      0.0    124.0      4.3      2.6      0.0    137.4       31    176.1    176.1       70     0.000     0.000     0.000     0.000       84        0        0        0        1       30       22     8.219       34     20.6    1.695   -9.900     0.55    0.000    0.000       11        9     2033  Maize_short_Chisinau_22May_Optimum_26_MOHC.PRM
  Tot(54)       22        5     2034    197.5    568.3   1472.4   436.00      0.0    187.2     10.3     21.6      0.0    129.8       55    239.1    239.0       74     0.000     0.000     0.000     0.000      107        0        0        0        5        7       18    15.619       64     38.7    6.038   -9.900     1.64    0.000    0.000       11        9     2034  Maize_short_Chisinau_22May_Optimum_26_MOHC.PRM
  Tot(55)       22        5     2035     60.9    674.8   1595.9   437.00      0.0     60.2      0.7      3.3      0.0     83.6       20    174.0    174.0       73     0.000     0.000     0.000     0.000       88        0        0        0        1       31       20     8.847       36     24.8    2.194   -9.900     0.86    0.000    0.000       11        9     2035  Maize_short_Chisinau_22May_Optimum_26_MOHC.PRM
  Tot(56)       22        5     2036    128.9    694.4   1558.1   438.00      0.0    126.5      2.4      2.1      0.0    131.8       33    194.1    194.1       71     0.000     0.000     0.000     0.000       87        0        0        0        3       28       21     9.277       39     23.9    2.221   -9.900     0.71    0.000    0.000       11        9     2036  Maize_short_Chisinau_22May_Optimum_26_MOHC.PRM
  Tot(57)       22        5     2037     83.2    714.7   1646.2   438.00      0.0     79.3      3.9      4.8      0.0    101.2       22    165.6    165.6       73     0.000     0.000     0.000     0.000       84        0        0        0        2       35       20     7.603       31     20.9    1.588   -9.900     0.60    0.000    0.000       11        9     2037  Maize_short_Chisinau_22May_Optimum_26_MOHC.PRM
  Tot(58)       22        5     2038    102.6    584.2   1472.7   439.00      0.0    102.0      0.6      0.1      0.0    120.8       41    192.5    192.5       72     0.000     0.000     0.000     0.000       93        0        0        0        4       21       21    11.432       47     29.6    3.383   -9.900     1.12    0.000    0.000       11        9     2038  Maize_short_Chisinau_22May_Optimum_26_MOHC.PRM
  Tot(59)       22        5     2039     77.9    725.9   1654.8   440.00      0.0     76.6      1.3      1.0      0.0    100.9       21    163.8    163.8       72     0.000     0.000     0.000     0.000       83        0        0        0        2       34       20     7.619       31     17.3    1.321   -9.900     0.54    0.000    0.000       11        9     2039  Maize_short_Chisinau_22May_Optimum_26_MOHC.PRM
  Tot(60)       22        5     2040     19.3    699.8   1567.4   440.00      0.0     19.3      0.0      0.0      0.0     54.1       11    162.1    162.1       75     0.000     0.000     0.000     0.000       88        0        0        0        2       35       19     8.178       33     25.0    2.047   -9.900     0.97    0.000    0.000       11        9     2040  Maize_short_Chisinau_22May_Optimum_26_MOHC.PRM
  Tot(61)       22        5     2041     52.5    726.5   1601.2   441.00      0.0     52.5      0.0      0.0      0.0     78.8       17    169.5    169.5       73     0.000     0.000     0.000     0.000       85        0        0        0        4       33       20     8.222       33     21.8    1.795   -9.900     0.73    0.000    0.000       11        9     2041  Maize_short_Chisinau_22May_Optimum_26_MOHC.PRM
  Tot(62)       22        5     2042    115.1    607.1   1519.1   441.00      0.0    114.8      0.3      0.0      0.0     90.3       32    244.3    244.3       76     0.000     0.000     0.000     0.000      106        0        0        0        5       15       22    14.430       59     38.9    5.607   -9.900     1.68    0.000    0.000       11        9     2042  Maize_short_Chisinau_22May_Optimum_26_MOHC.PRM
  Tot(63)       22        5     2043     94.6    708.1   1642.8   441.00      0.0     94.3      0.3      0.0      0.0    116.4       28    178.7    178.7       70     0.000     0.000     0.000     0.000       85        0        0        0        1       30       22     8.719       35     22.0    1.919   -9.900     0.66    0.000    0.000       11        9     2043  Maize_short_Chisinau_22May_Optimum_26_MOHC.PRM
  Tot(64)       22        5     2044    194.3    606.0   1527.5   442.00      0.0    192.3      2.0      2.2      0.0    161.0       56    237.4    237.4       76     0.000     0.000     0.000     0.000      100        0        0        0        1       13       20    14.053       59     36.2    5.092   -9.900     1.29    0.000    0.000       11        9     2044  Maize_short_Chisinau_22May_Optimum_26_MOHC.PRM
  Tot(65)       22        5     2045    156.0    630.0   1488.8   442.00      0.0    137.7     18.3     36.4      0.0    110.2       33    190.2    190.2       70     0.000     0.000     0.000     0.000       90        0        0        0        2       24       21    10.282       43     26.5    2.723   -9.900     0.95    0.000    0.000       11        9     2045  Maize_short_Chisinau_22May_Optimum_26_MOHC.PRM
  Tot(66)       22        5     2046     52.3    805.4   1841.8   442.00      0.0     52.0      0.3      0.0      0.0     80.2       14    161.6    161.6       74     0.000     0.000     0.000     0.000       84        0        0        0        0       37       20     6.901       28     13.4    0.925   -9.900     0.40    0.000    0.000       11        9     2046  Maize_short_Chisinau_22May_Optimum_26_MOHC.PRM
  Tot(67)       22        5     2047    103.0    686.9   1693.9   442.00      0.0     95.6      7.4     18.3      0.0    103.4       24    169.3    169.3       72     0.000     0.000     0.000     0.000       86        0        0        0        1       33       20     8.473       34     22.8    1.933   -9.900     0.72    0.000    0.000       11        9     2047  Maize_short_Chisinau_22May_Optimum_26_MOHC.PRM
  Tot(68)       22        5     2048    149.1    600.2   1467.2   442.00      0.0    140.4      8.7     17.2      0.0     95.5       32    241.3    241.3       80     0.000     0.000     0.000     0.000      103        0        0        0        6       21       18    13.842       58     40.0    5.538   -9.900     1.65    0.000    0.000       11        9     2048  Maize_short_Chisinau_22May_Optimum_26_MOHC.PRM
  Tot(69)       22        5     2049     87.5    616.2   1578.7   443.00      0.0     87.4      0.1      0.0      0.0     92.3       27    206.2    205.7       76     0.000     0.000     0.000     0.000      107        0        0        0        3       30       19    12.507       51     40.4    5.048   -9.900     1.69    0.000    0.000       11        9     2049  Maize_short_Chisinau_22May_Optimum_26_MOHC.PRM
  Tot(70)       22        5     2050     92.8    652.6   1626.2   443.00      0.0     91.1      1.7      0.0      0.0    104.7       26    176.7    177.2       75     0.000     0.000     0.000     0.000       91        0        0        0        3       32       19     9.118       37     28.1    2.560   -9.900     0.97    0.000    0.000       11        9     2050  Maize_short_Chisinau_22May_Optimum_26_MOHC.PRM
  Tot(71)       22        5     2051     83.8    691.1   1628.4   443.00      0.0     82.2      1.6      6.2      0.0    100.3       24    172.9    172.9       73     0.000     0.000     0.000     0.000       86        0        0        0        3       31       21     8.674       35     22.8    1.981   -9.900     0.73    0.000    0.000       11        9     2051  Maize_short_Chisinau_22May_Optimum_26_MOHC.PRM
  Tot(72)       22        5     2052    116.3    637.7   1641.5   443.00      0.0    116.2      0.1      0.0      0.0    108.5       33    224.1    224.1       75     0.000     0.000     0.000     0.000      100        0        0        0        0       20       22    12.614       51     36.4    4.597   -9.900     1.40    0.000    0.000       11        9     2052  Maize_short_Chisinau_22May_Optimum_26_MOHC.PRM
  Tot(73)       22        5     2053     95.9    686.6   1657.1   443.00      0.0     95.9      0.0      0.0      0.0    113.0       26    176.3    176.3       74     0.000     0.000     0.000     0.000       89        0        0        0        0       32       20     8.896       36     25.9    2.305   -9.900     0.81    0.000    0.000       11        9     2053  Maize_short_Chisinau_22May_Optimum_26_MOHC.PRM
  Tot(74)       22        5     2054    171.1    619.3   1501.8   443.00      0.0    156.3     14.8      9.7      0.0    115.0       31    182.1    182.1       75     0.000     0.000     0.000     0.000       91        0        0        0        2       29       19    10.114       42     28.3    2.858   -9.900     1.00    0.000    0.000       11        9     2054  Maize_short_Chisinau_22May_Optimum_26_MOHC.PRM
  Tot(75)       22        5     2055    134.2    661.9   1612.2   443.00      0.0    123.6     10.6     21.7      0.0     98.6       23    186.4    186.3       80     0.000     0.000     0.000     0.000      107        0        0        0        1       34       15    10.312       42     40.4    4.168   -9.900     1.46    0.000    0.000       11        9     2055  Maize_short_Chisinau_22May_Optimum_26_MOHC.PRM
  Tot(76)       22        5     2056    159.0    663.2   1608.1   442.00      0.0    153.8      5.2      7.5      0.0    146.3       43    211.9    212.0       72     0.000     0.000     0.000     0.000       93        0        0        0        1       21       21    11.561       47     29.7    3.428   -9.900     0.96    0.000    0.000       11        9     2056  Maize_short_Chisinau_22May_Optimum_26_MOHC.PRM
  Tot(77)       22        5     2057    137.4    676.8   1653.8   442.00      0.0    136.2      1.2      1.0      0.0    134.6       38    210.4    210.4       73     0.000     0.000     0.000     0.000       91        0        0        0        1       21       21    10.998       44     27.9    3.067   -9.900     0.89    0.000    0.000       11        9     2057  Maize_short_Chisinau_22May_Optimum_26_MOHC.PRM
  Tot(78)       22        5     2058     69.1    670.3   1604.6   442.00      0.0     68.9      0.2      0.0      0.0     88.2       22    188.7    188.7       75     0.000     0.000     0.000     0.000       92        0        0        0        1       29       20    10.216       42     28.8    2.943   -9.900     1.07    0.000    0.000       11        9     2058  Maize_short_Chisinau_22May_Optimum_26_MOHC.PRM
  Tot(79)       22        5     2059     74.5    650.2   1577.7   442.00      0.0     70.9      3.6     13.4      0.0     71.6       19    201.5    201.5       72     0.000     0.000     0.000     0.000      107        0        0        0        5       31       23    11.301       46     36.4    4.116   -9.900     1.51    0.000    0.000       11        9     2059  Maize_short_Chisinau_22May_Optimum_26_MOHC.PRM
  Tot(80)       22        5     2060     41.9    634.0   1555.3   442.00      0.0     41.1      0.8      3.9      0.0     64.5       17    172.7    172.7       73     0.000     0.000     0.000     0.000       90        0        0        0        2       30       20     9.669       39     26.9    2.596   -9.900     1.13    0.000    0.000       11        9     2060  Maize_short_Chisinau_22May_Optimum_26_MOHC.PRM
  Tot(81)       22        5     2061     59.7    644.7   1618.2   441.00      0.0     54.8      4.9     11.2      0.0     73.7       19    167.3    167.3       73     0.000     0.000     0.000     0.000       87        0        0        0        1       31       20     8.745       35     23.9    2.093   -9.900     0.88    0.000    0.000       11        9     2061  Maize_short_Chisinau_22May_Optimum_26_MOHC.PRM
  Tot(82)       22        5     2062     89.2    655.7   1596.7   441.00      0.0     89.2      0.0      0.0      0.0    106.2       26    187.2    186.8       75     0.000     0.000     0.000     0.000      107        0        0        0        3       32       21    10.452       42     40.3    4.213   -9.900     1.44    0.000    0.000       11        9     2062  Maize_short_Chisinau_22May_Optimum_26_MOHC.PRM
  Tot(83)       22        5     2063    133.9    625.7   1588.5   441.00      0.0    127.9      6.0     11.6      0.0    124.2       35    178.3    178.8       71     0.000     0.000     0.000     0.000       88        0        0        0        2       28       21     9.338       38     24.7    2.304   -9.900     0.82    0.000    0.000       11        9     2063  Maize_short_Chisinau_22May_Optimum_26_MOHC.PRM
  Tot(84)       22        5     2064     57.2    682.0   1612.7   440.00      0.0     56.1      1.1      3.5      0.0     79.5       19    164.6    164.6       72     0.000     0.000     0.000     0.000       85        0        0        0        0       33       21     8.034       33     21.8    1.751   -9.900     0.74    0.000    0.000       11        9     2064  Maize_short_Chisinau_22May_Optimum_26_MOHC.PRM
  Tot(85)       22        5     2065     37.6    744.5   1672.7   440.00      0.0     37.6      0.0      0.0      0.0     70.7       12    152.7    152.7       82     0.000     0.000     0.000     0.000       94        0        0        0        1       41       16     7.040       29     30.5    2.144   -9.900     0.97    0.000    0.000       11        9     2065  Maize_short_Chisinau_22May_Optimum_26_MOHC.PRM
  Tot(86)       22        5     2066    222.9    617.5   1507.8   440.00      0.0    189.9     33.0      0.1      0.0    116.0       35    222.3    221.4       78     0.000     0.000     0.000     0.000      107        0        0        0        4       28       11    13.514       58     40.3    5.452   -9.900     1.61    0.000    0.000       11        9     2066  Maize_short_Chisinau_22May_Optimum_26_MOHC.PRM
  Tot(87)       22        5     2067     73.7    654.0   1554.0   439.00      0.0     73.1      0.6      0.0      0.0     71.4       18    206.5    206.8       78     0.000     0.000     0.000     0.000      107        0        0        0        2       35       16    11.558       47     40.5    4.687   -9.900     1.69    0.000    0.000       11        9     2067  Maize_short_Chisinau_22May_Optimum_26_MOHC.PRM
  Tot(88)       22        5     2068    169.7    572.7   1419.8   439.00      0.0    165.8      3.9      6.1      0.0    126.7       50    249.7    250.3       80     0.000     0.000     0.000     0.000      106        0        0        0        5       13       19    15.294       63     39.8    6.086   -9.900     1.62    0.000    0.000       11        9     2068  Maize_short_Chisinau_22May_Optimum_26_MOHC.PRM
  Tot(89)       22        5     2069     78.9    640.5   1598.8   438.00      0.0     78.5      0.4      0.2      0.0     98.4       26    184.8    184.8       77     0.000     0.000     0.000     0.000       93        0        0        0        1       30       19    10.488       43     30.1    3.157   -9.900     1.12    0.000    0.000       11        9     2069  Maize_short_Chisinau_22May_Optimum_26_MOHC.PRM
  Tot(90)       22        5     2070     45.8    620.6   1525.6   437.00      0.0     45.8      0.0      0.0      0.0     74.0       20    171.0    171.0       74     0.000     0.000     0.000     0.000       90        0        0        0        4       31       19     9.156       38     27.0    2.471   -9.900     1.02    0.000    0.000       11        9     2070  Maize_short_Chisinau_22May_Optimum_26_MOHC.PRM
  Tot(91)       22        5     2071    136.8    604.8   1497.1   437.00      0.0    128.3      8.5      0.0      0.0     95.3       29    221.1    220.5       80     0.000     0.000     0.000     0.000      107        0        0        0        5       25       13    13.448       57     40.4    5.437   -9.900     1.72    0.000    0.000       11        9     2071  Maize_short_Chisinau_22May_Optimum_26_MOHC.PRM
  Tot(92)       22        5     2072     61.0    639.9   1534.6   436.00      0.0     61.0      0.0      0.0      0.0     86.8       22    179.7    180.3       79     0.000     0.000     0.000     0.000       94        0        0        0        2       34       18    10.078       41     31.2    3.144   -9.900     1.19    0.000    0.000       11        9     2072  Maize_short_Chisinau_22May_Optimum_26_MOHC.PRM
  Tot(93)       22        5     2073     75.8    691.5   1651.7   436.00      0.0     74.8      1.0      1.8      0.0     89.6       20    188.9    188.9       76     0.000     0.000     0.000     0.000      107        0        0        0        1       33       31     9.451       38     29.3    2.765   -9.900     0.99    0.000    0.000       11        9     2073  Maize_short_Chisinau_22May_Optimum_26_MOHC.PRM
  Tot(94)       22        5     2074     86.4    612.8   1444.0   435.00      0.0     86.1      0.3      0.0      0.0     91.0       29    208.1    208.1       75     0.000     0.000     0.000     0.000       94        0        0        0        5       20       20    11.634       48     30.7    3.570   -9.900     1.20    0.000    0.000       11        9     2074  Maize_short_Chisinau_22May_Optimum_26_MOHC.PRM
  Tot(95)       22        5     2075    119.6    585.0   1453.4   435.00      0.0    118.4      1.2      2.1      0.0    120.1       42    206.6    206.6       74     0.000     0.000     0.000     0.000       94        0        0        0        4       19       21    11.775       49     30.7    3.613   -9.900     1.12    0.000    0.000       11        9     2075  Maize_short_Chisinau_22May_Optimum_26_MOHC.PRM
  Tot(96)       22        5     2076     75.0    725.1   1706.8   434.00      0.0     74.0      1.0      0.0      0.0     97.3       22    176.5    176.5       70     0.000     0.000     0.000     0.000       86        0        0        0        1       31       21     8.547       35     20.1    1.720   -9.900     0.63    0.000    0.000       11        9     2076  Maize_short_Chisinau_22May_Optimum_26_MOHC.PRM
  Tot(97)       22        5     2077     72.1    721.1   1566.5   433.00      0.0     72.0      0.1      0.0      0.0     99.4       20    165.1    165.1       76     0.000     0.000     0.000     0.000       86        0        0        0        2       37       19     7.597       31     23.1    1.751   -9.900     0.67    0.000    0.000       11        9     2077  Maize_short_Chisinau_22May_Optimum_26_MOHC.PRM
  Tot(98)       22        5     2078    114.8    641.5   1641.7   433.00      0.0    114.6      0.2      0.0      0.0    129.2       35    192.9    192.9       75     0.000     0.000     0.000     0.000       93        0        0        0        1       26       20    10.928       45     29.8    3.253   -9.900     1.04    0.000    0.000       11        9     2078  Maize_short_Chisinau_22May_Optimum_26_MOHC.PRM
  Tot(99)       22        5     2079     95.0    618.3   1540.3   432.00      0.0     94.8      0.2      0.0      0.0    106.7       32    189.7    189.7       73     0.000     0.000     0.000     0.000       90        0        0        0        4       26       20    10.174       42     27.1    2.754   -9.900     0.95    0.000    0.000       11        9     2079  Maize_short_Chisinau_22May_Optimum_26_MOHC.PRM
 Tot(100)       22        5     2080    135.0    667.2   1593.7   432.00      0.0    115.6     19.4     29.5      0.0    103.5       27    179.9    179.9       69     0.000     0.000     0.000     0.000       86        0        0        0        2       28       21     8.966       37     21.6    1.934   -9.900     0.71    0.000    0.000       11        9     2080  Maize_short_Chisinau_22May_Optimum_26_MOHC.PRM
 Tot(101)       22        5     2081     83.4    707.5   1740.2   431.00      0.0     83.1      0.3      0.0      0.0    106.2       22    164.2    164.2       73     0.000     0.000     0.000     0.000      107        0        0        0        0       35       33     7.782       32     21.6    1.681   -9.900     0.62    0.000    0.000       11        9     2081  Maize_short_Chisinau_22May_Optimum_26_MOHC.PRM
 Tot(102)       22        5     2082     45.7    757.0   1716.8   431.00      0.0     45.6      0.1      0.0      0.0     75.7       15    164.3    164.3       73     0.000     0.000     0.000     0.000       85        0        0        0        0       35       20     7.660       31     21.8    1.673   -9.900     0.70    0.000    0.000       11        9     2082  Maize_short_Chisinau_22May_Optimum_26_MOHC.PRM
 Tot(103)       22        5     2083    118.1    679.9   1606.8   430.00      0.0    116.4      1.7      1.1      0.0    120.0       28    181.6    181.4       74     0.000     0.000     0.000     0.000      107        0        0        0        2       32       17     8.823       36     31.0    2.738   -9.900     0.91    0.000    0.000       11        9     2083  Maize_short_Chisinau_22May_Optimum_26_MOHC.PRM
 Tot(104)       22        5     2084    127.3    665.2   1633.6   429.00      0.0    123.8      3.5      7.5      0.0    128.1       35    190.6    190.7       70     0.000     0.000     0.000     0.000       87        0        0        0        2       26       22     9.547       39     23.5    2.241   -9.900     0.71    0.000    0.000       11        9     2084  Maize_short_Chisinau_22May_Optimum_26_MOHC.PRM
 Tot(105)       22        5     2085     93.2    626.0   1581.1   429.00      0.0     83.0     10.2     14.2      0.0     92.9       25    174.7    174.7       74     0.000     0.000     0.000     0.000       88        0        0        0        3       31       20     9.173       37     25.0    2.289   -9.900     0.88    0.000    0.000       11        9     2085  Maize_short_Chisinau_22May_Optimum_26_MOHC.PRM
 Tot(106)       22        5     2086     80.5    608.1   1502.6   428.00      0.0     80.4      0.1      0.0      0.0     98.1       29    177.5    177.5       72     0.000     0.000     0.000     0.000       90        0        0        0        3       28       21     9.588       40     26.8    2.573   -9.900     0.94    0.000    0.000       11        9     2086  Maize_short_Chisinau_22May_Optimum_26_MOHC.PRM
 Tot(107)       22        5     2087     76.9    713.2   1730.0   428.00      0.0     76.9      0.0      0.0      0.0     94.6       19    167.3    167.3       76     0.000     0.000     0.000     0.000       95        0        0        0        0       35       18     8.167       33     31.2    2.546   -9.900     1.00    0.000    0.000       11        9     2087  Maize_short_Chisinau_22May_Optimum_26_MOHC.PRM
 Tot(108)       22        5     2088    168.5    576.5   1472.3   427.00      0.0    154.6     13.9     12.5      0.0    115.5       41    212.1    211.9       74     0.000     0.000     0.000     0.000      107        0        0        0        4       22       16    12.110       51     40.1    4.854   -9.900     1.48    0.000    0.000       11        9     2088  Maize_short_Chisinau_22May_Optimum_26_MOHC.PRM
 Tot(109)       22        5     2089    149.9    610.3   1581.9   427.00      0.0    149.2      0.7      0.0      0.0    145.0       43    209.1    209.2       78     0.000     0.000     0.000     0.000       98        0        0        0        1       24       18    12.133       50     35.2    4.275   -9.900     1.21    0.000    0.000       11        9     2089  Maize_short_Chisinau_22May_Optimum_26_MOHC.PRM
 Tot(110)       22        5     2090     95.4    712.5   1694.0   426.00      0.0     95.4      0.0      0.0      0.0    116.2       24    182.3    182.3       78     0.000     0.000     0.000     0.000       92        0        0        0        1       35       18     9.367       38     29.2    2.731   -9.900     0.92    0.000    0.000       11        9     2090  Maize_short_Chisinau_22May_Optimum_26_MOHC.PRM
 Tot(111)       22        5     2091     98.6    586.6   1512.0   425.00      0.0     98.4      0.2      0.0      0.0     91.3       28    217.2    216.8       79     0.000     0.000     0.000     0.000      107        0        0        0        4       23       16    14.394       61     40.1    5.778   -9.900     1.87    0.000    0.000       11        9     2091  Maize_short_Chisinau_22May_Optimum_26_MOHC.PRM
 Tot(112)       22        5     2092    103.6    606.6   1533.4   425.00      0.0    103.1      0.5      0.0      0.0    105.4       37    217.7    218.1       73     0.000     0.000     0.000     0.000       99        0        0        0        4       15       21    13.159       54     35.1    4.617   -9.900     1.43    0.000    0.000       11        9     2092  Maize_short_Chisinau_22May_Optimum_26_MOHC.PRM
 Tot(113)       22        5     2093     68.4    672.7   1620.7   424.00      0.0     68.4      0.0      0.0      0.0     95.3       23    173.0    173.0       72     0.000     0.000     0.000     0.000       87        0        0        0        1       31       21     8.736       36     23.7    2.073   -9.900     0.80    0.000    0.000       11        9     2093  Maize_short_Chisinau_22May_Optimum_26_MOHC.PRM
 Tot(114)       22        5     2094    156.8    620.1   1523.2   424.00      0.0    129.6     27.2     15.1      0.0     98.6       27    178.1    178.1       74     0.000     0.000     0.000     0.000       90        0        0        0        2       29       20     9.834       41     26.8    2.638   -9.900     1.01    0.000    0.000       11        9     2094  Maize_short_Chisinau_22May_Optimum_26_MOHC.PRM
 Tot(115)       22        5     2095    181.0    660.2   1569.0   423.00      0.0    165.5     15.5      0.0      0.0    107.4       32    206.2    206.2       71     0.000     0.000     0.000     0.000       90        0        0        0        3       22       22    10.281       43     26.5    2.724   -9.900     0.87    0.000    0.000       11        9     2095  Maize_short_Chisinau_22May_Optimum_26_MOHC.PRM
 Tot(116)       22        5     2096     65.7    703.8   1713.6   423.00      0.0     65.7      0.0      0.0      0.0     94.3       19    172.9    172.9       79     0.000     0.000     0.000     0.000       94        0        0        0        0       34       18     9.048       37     31.2    2.825   -9.900     1.10    0.000    0.000       11        9     2096  Maize_short_Chisinau_22May_Optimum_26_MOHC.PRM
 Tot(117)       22        5     2097     83.8    622.1   1579.2   422.00      0.0     81.6      2.2      7.6      0.0     90.7       28    194.7    194.7       71     0.000     0.000     0.000     0.000       92        0        0        0        4       23       21    10.841       44     28.5    3.088   -9.900     1.10    0.000    0.000       11        9     2097  Maize_short_Chisinau_22May_Optimum_26_MOHC.PRM
 Tot(118)       22        5     2098     51.7    636.3   1446.4   422.00      0.0     51.7      0.0      0.0      0.0     60.2       17    208.7    208.7       77     0.000     0.000     0.000     0.000      102        0        0        0        4       28       20    12.114       50     38.4    4.654   -9.900     1.75    0.000    0.000       11        9     2098  Maize_short_Chisinau_22May_Optimum_26_MOHC.PRM
 Tot(119)       22        5     2099     28.4    796.0   1713.5   421.00      0.0     28.4      0.0      0.0      0.0     62.6       10    153.8    153.8       76     0.000     0.000     0.000     0.000       85        0        0        0        3       40       18     6.473       27     22.1    1.430   -9.900     0.67    0.000    0.000       11        9     2099  Maize_short_Chisinau_22May_Optimum_26_MOHC.PRM
