AquaCrop 7.0 (August 2022) - Output created on (date) : 23-11-2022   at (time) : 17:46:54

    RunNr     Day1   Month1    Year1     Rain      ETo       GD     CO2      Irri   Infilt   Runoff    Drain   Upflow        E     E/Ex       Tr      TrW   Tr/Trx    SaltIn   SaltOut    SaltUp  SaltProf     Cycle   SaltStr  FertStr  WeedStr  TempStr   ExpStr   StoStr  BioMass  Brelative   HI    Y(dry)  Y(fresh)    WPet      Bin     Bout     DayN   MonthN    YearN
                                           mm       mm  degC.day    ppm        mm       mm       mm       mm       mm       mm        %       mm       mm        %    ton/ha    ton/ha    ton/ha    ton/ha      days       %        %        %        %        %        %    ton/ha        %       %    ton/ha   ton/ha    kg/m3   ton/ha   ton/ha
   Tot(1)        6        6     1981    323.6    420.3   1169.7   340.11      0.0    268.1     55.5     55.9      0.0    129.2       64    209.4    208.0      100     0.000     0.000     0.000     0.000      107        0        0        0       19        7        0    17.556       96     40.4    7.090   -9.900     2.09    0.000    0.000       26        9     1981  Maize_Short_Soroca_6June_Optimum_85_NCC.PRM
   Tot(2)        6        6     1982    276.8    416.0   1171.0   341.22      0.0    237.3     39.5     48.6      0.0    148.1       82    232.7    233.7       97     0.000     0.000     0.000     0.000      107        0        0        0       12        3        3    19.968       93     40.2    8.020   -9.900     2.11    0.000    0.000       26        9     1982  Maize_Short_Soroca_6June_Optimum_85_NCC.PRM
   Tot(3)        6        6     1983    213.6    428.2   1169.7   342.84      0.0    208.8      4.8      6.9      0.0    121.7       64    228.0    228.3      100     0.000     0.000     0.000     0.000      107        0        0        0       13        1        0    19.517       97     40.0    7.809   -9.900     2.23    0.000    0.000       26        9     1983  Maize_Short_Soroca_6June_Optimum_85_NCC.PRM
   Tot(4)        6        6     1984    282.0    406.7   1061.7   344.40      0.0    268.3     13.7     12.2      0.0    154.8       87    216.6    215.2      100     0.000     0.000     0.000     0.000      107        0        0        0       20        1        0    19.322       98     40.1    7.745   -9.900     2.09    0.000    0.000       26        9     1984  Maize_Short_Soroca_6June_Optimum_85_NCC.PRM
   Tot(5)        6        6     1985    357.2    428.1   1082.1   345.87      0.0    308.6     48.6     56.8      0.0    145.6       82    232.9    234.3      100     0.000     0.000     0.000     0.000      107        0        0        0       23        2        1    17.888       97     40.1    7.165   -9.900     1.89    0.000    0.000       26        9     1985  Maize_Short_Soroca_6June_Optimum_85_NCC.PRM
   Tot(6)        6        6     1986    147.6    489.6   1212.2   347.19      0.0    146.7      0.9      0.0      0.0    114.5       49    234.2    234.2       96     0.000     0.000     0.000     0.000      107        0        0        0       17        9        5    17.133       89     40.4    6.915   -9.900     1.98    0.000    0.000       26        9     1986  Maize_Short_Soroca_6June_Optimum_85_NCC.PRM
   Tot(7)        6        6     1987    211.9    451.8   1159.6   348.98      0.0    206.3      5.6      6.4      0.0    114.2       50    205.0    203.2      100     0.000     0.000     0.000     0.000      107        0        0        0       17        6        0    17.270       94     40.0    6.911   -9.900     2.16    0.000    0.000       26        9     1987  Maize_Short_Soroca_6June_Optimum_85_NCC.PRM
   Tot(8)        6        6     1988    248.1    413.1   1202.7   351.45      0.0    238.8      9.3     15.2      0.0    134.4       71    218.9    219.6      100     0.000     0.000     0.000     0.000      107        0        0        0       16        3        0    18.766       97     40.2    7.542   -9.900     2.13    0.000    0.000       26        9     1988  Maize_Short_Soroca_6June_Optimum_85_NCC.PRM
   Tot(9)        6        6     1989    414.3    403.4   1141.8   352.89      0.0    339.5     74.8     37.5      0.0    122.6       65    206.5    206.1      100     0.000     0.000     0.000     0.000      107        0        0        0       16        2        0    18.599       97     40.0    7.445   -9.900     2.26    0.000    0.000       26        9     1989  Maize_Short_Soroca_6June_Optimum_85_NCC.PRM
  Tot(10)        6        6     1990    176.4    440.5   1094.6   354.16      0.0    167.9      8.5     13.1      0.0    123.5       60    210.7    211.7       98     0.000     0.000     0.000     0.000      107        0        0        0       20       12        2    16.365       91     40.6    6.645   -9.900     1.99    0.000    0.000       26        9     1990  Maize_Short_Soroca_6June_Optimum_85_NCC.PRM
  Tot(11)        6        6     1991    371.0    403.5   1213.4   355.48      0.0    322.1     48.9     40.9      0.0    147.2       75    199.8    198.0      100     0.000     0.000     0.000     0.000      107        0        0        0       13        0        0    19.176       97     40.0    7.670   -9.900     2.21    0.000    0.000       26        9     1991  Maize_Short_Soroca_6June_Optimum_85_NCC.PRM
  Tot(12)        6        6     1992    153.8    498.8   1261.7   356.27      0.0    153.4      0.4      0.0      0.0    126.9       53    219.7    221.8       85     0.000     0.000     0.000     0.000      107        0        0        0       15       19        8    14.630       75     40.6    5.936   -9.900     1.71    0.000    0.000       26        9     1992  Maize_Short_Soroca_6June_Optimum_85_NCC.PRM
  Tot(13)        6        6     1993    276.6    430.4   1056.4   356.95      0.0    234.0     42.6      0.0      0.0    116.0       57    211.2    210.0      100     0.000     0.000     0.000     0.000      107        0        0        0       23        5        0    17.462       96     40.3    7.030   -9.900     2.15    0.000    0.000       26        9     1993  Maize_Short_Soroca_6June_Optimum_85_NCC.PRM
  Tot(14)        6        6     1994    213.3    492.9   1309.0   358.63      0.0    170.1     43.2     19.9      0.0     89.2       35    245.3    245.3       95     0.000     0.000     0.000     0.000      107        0        0        0        7       23        3    18.472       82     40.9    7.557   -9.900     2.26    0.000    0.000       26        9     1994  Maize_Short_Soroca_6June_Optimum_85_NCC.PRM
  Tot(15)        6        6     1995    377.3    450.2   1246.1   360.62      0.0    331.3     46.0     26.1      0.0    119.3       55    236.5    237.4      100     0.000     0.000     0.000     0.000      107        0        0        0       13        2        0    19.372       97     40.1    7.764   -9.900     2.18    0.000    0.000       26        9     1995  Maize_Short_Soroca_6June_Optimum_85_NCC.PRM
  Tot(16)        6        6     1996    392.3    424.9   1100.1   362.37      0.0    340.3     52.0     22.4      0.0    133.1       61    197.5    197.6      100     0.000     0.000     0.000     0.000      107        0        0        0       24        2        0    16.650       96     40.1    6.678   -9.900     2.02    0.000    0.000       26        9     1996  Maize_Short_Soroca_6June_Optimum_85_NCC.PRM
  Tot(17)        6        6     1997    318.9    401.6   1109.9   363.47      0.0    300.0     18.9     23.7      0.0    142.6       74    190.5    190.6      100     0.000     0.000     0.000     0.000      107        0        0        0       19        1        0    17.851       97     40.0    7.146   -9.900     2.15    0.000    0.000       26        9     1997  Maize_Short_Soroca_6June_Optimum_85_NCC.PRM
  Tot(18)        6        6     1998    287.9    420.7   1171.6   366.50      0.0    270.1     17.8     35.9      0.0    126.6       70    221.8    221.0      100     0.000     0.000     0.000     0.000      107        0        0        0       20        2        0    17.936       97     40.1    7.196   -9.900     2.07    0.000    0.000       26        9     1998  Maize_Short_Soroca_6June_Optimum_85_NCC.PRM
  Tot(19)        6        6     1999    165.9    483.7   1378.8   368.14      0.0    165.9      0.0      0.0      0.0    116.2       46    239.8    238.9       99     0.000     0.000     0.000     0.000      107        0        0        0        7       13        1    19.803       92     40.5    8.030   -9.900     2.26    0.000    0.000       26        9     1999  Maize_Short_Soroca_6June_Optimum_85_NCC.PRM
  Tot(20)        6        6     2000    297.3    455.6   1161.2   369.41      0.0    282.8     14.5     20.8      0.0    148.9       68    232.4    234.0      100     0.000     0.000     0.000     0.000      107        0        0        0       20        2        0    18.630       97     40.2    7.487   -9.900     1.96    0.000    0.000       26        9     2000  Maize_Short_Soroca_6June_Optimum_85_NCC.PRM
  Tot(21)        6        6     2001    265.2    462.1   1291.3   371.07      0.0    251.0     14.2      4.4      0.0    148.7       72    243.1    243.3       95     0.000     0.000     0.000     0.000      107        0        0        0       12        9        3    18.439       88     40.5    7.475   -9.900     1.91    0.000    0.000       26        9     2001  Maize_Short_Soroca_6June_Optimum_85_NCC.PRM
  Tot(22)        6        6     2002    389.7    467.2   1321.1   373.16      0.0    352.6     37.1     42.5      0.0    111.1       45    233.9    233.6      100     0.000     0.000     0.000     0.000      107        0        0        0       11        4        0    19.338       93     40.0    7.735   -9.900     2.24    0.000    0.000       26        9     2002  Maize_Short_Soroca_6June_Optimum_85_NCC.PRM
  Tot(23)        6        6     2003    334.8    489.0   1220.9   375.80      0.0    285.0     49.8     63.3      0.0    133.7       57    245.9    246.1      100     0.000     0.000     0.000     0.000      107        0        0        0       15        2        0    19.012       96     40.0    7.613   -9.900     2.01    0.000    0.000       26        9     2003  Maize_Short_Soroca_6June_Optimum_85_NCC.PRM
  Tot(24)        6        6     2004    263.1    450.3   1178.8   377.49      0.0    242.3     20.8      9.2      0.0     93.0       39    210.9    210.9      100     0.000     0.000     0.000     0.000      107        0        0        0       15        4        0    18.718       94     40.0    7.489   -9.900     2.46    0.000    0.000       26        9     2004  Maize_Short_Soroca_6June_Optimum_85_NCC.PRM
  Tot(25)        6        6     2005    181.1    447.2   1239.3   379.80      0.0    175.6      5.5      8.2      0.0    113.8       56    245.0    243.9       99     0.000     0.000     0.000     0.000      107        0        0        0        9        6        1    20.634       95     40.2    8.295   -9.900     2.31    0.000    0.000       26        9     2005  Maize_Short_Soroca_6June_Optimum_85_NCC.PRM
  Tot(26)        6        6     2006    220.5    483.0   1237.4   381.90      0.0    215.5      5.0      0.0      0.0    107.4       46    249.8    248.3      100     0.000     0.000     0.000     0.000      107        0        0        0       11        7        0    19.853       94     40.2    7.983   -9.900     2.23    0.000    0.000       26        9     2006  Maize_Short_Soroca_6June_Optimum_85_NCC.PRM
  Tot(27)        6        6     2007    185.3    532.1   1314.3   383.77      0.0    181.4      3.9      0.0      0.0    105.3       34    226.3    227.8      100     0.000     0.000     0.000     0.000      107        0        0        0       13       17        0    17.234       86     40.3    6.950   -9.900     2.10    0.000    0.000       26        9     2007  Maize_Short_Soroca_6June_Optimum_85_NCC.PRM
  Tot(28)        6        6     2008    400.0    488.6   1252.2   385.59      0.0    330.7     69.3     52.0      0.0    121.0       50    256.1    256.9      100     0.000     0.000     0.000     0.000      107        0        0        0       15        3        0    18.626       95     40.1    7.461   -9.900     1.98    0.000    0.000       26        9     2008  Maize_Short_Soroca_6June_Optimum_85_NCC.PRM
  Tot(29)        6        6     2009    155.7    534.4   1353.0   387.37      0.0    154.7      1.0      0.0      0.0    147.7       53    224.3    224.6       86     0.000     0.000     0.000     0.000      107        0        0        0        8       15       15    15.856       71     40.0    6.345   -9.900     1.71    0.000    0.000       26        9     2009  Maize_Short_Soroca_6June_Optimum_85_NCC.PRM
  Tot(30)        6        6     2010    312.2    466.6   1338.8   389.85      0.0    287.9     24.3     41.7      0.0    138.3       65    249.8    247.9       99     0.000     0.000     0.000     0.000      107        0        0        0       13        6        1    19.331       95     40.4    7.809   -9.900     2.01    0.000    0.000       26        9     2010  Maize_Short_Soroca_6June_Optimum_85_NCC.PRM
  Tot(31)        6        6     2011    175.5    501.1   1309.7   391.63      0.0    172.0      3.5      3.5      0.0    141.3       61    244.8    246.6       89     0.000     0.000     0.000     0.000      107        0        0        0        8        5       12    18.145       80     39.9    7.232   -9.900     1.87    0.000    0.000       26        9     2011  Maize_Short_Soroca_6June_Optimum_85_NCC.PRM
  Tot(32)        6        6     2012    107.4    583.0   1401.8   393.82      0.0    105.8      1.6      3.9      0.0    104.2       29    211.3    211.3       87     0.000     0.000     0.000     0.000      107        0        0        0        7       30       13    13.847       63     40.4    5.597   -9.900     1.77    0.000    0.000       26        9     2012  Maize_Short_Soroca_6June_Optimum_85_NCC.PRM
  Tot(33)        6        6     2013    249.3    473.0   1269.4   396.48      0.0    231.5     17.8      0.0      0.0    130.3       53    203.7    203.6       91     0.000     0.000     0.000     0.000      107        0        0        0       13       20        4    16.268       81     40.8    6.639   -9.900     1.99    0.000    0.000       26        9     2013  Maize_Short_Soroca_6June_Optimum_85_NCC.PRM
  Tot(34)        6        6     2014    237.1    504.5   1302.8   398.55      0.0    217.1     20.0     22.3      0.0    105.9       46    262.6    262.7       95     0.000     0.000     0.000     0.000      107        0        0        0       11        6        5    19.268       89     40.2    7.737   -9.900     2.10    0.000    0.000       26        9     2014  Maize_Short_Soroca_6June_Optimum_85_NCC.PRM
  Tot(35)        6        6     2015     75.3    590.7   1405.3   402.00      0.0     75.3      0.0      0.0      0.0     96.2       25    171.2    171.3       80     0.000     0.000     0.000     0.000      102        0        0        0        7       30       17    10.410       46     39.5    4.110   -9.900     1.57    0.000    0.000       26        9     2015  Maize_Short_Soroca_6June_Optimum_85_NCC.PRM
  Tot(36)        6        6     2016    196.8    529.3   1373.3   404.00      0.0    193.9      2.9      1.7      0.0    155.3       59    244.0    243.9       89     0.000     0.000     0.000     0.000      107        0        0        0        9       17       12    17.059       77     40.2    6.866   -9.900     1.72    0.000    0.000       26        9     2016  Maize_Short_Soroca_6June_Optimum_85_NCC.PRM
  Tot(37)        6        6     2017    229.7    532.7   1347.1   407.00      0.0    222.5      7.2      1.9      0.0    147.9       56    239.4    238.7       88     0.000     0.000     0.000     0.000      107        0        0        0        8       13        9    17.163       77     40.2    6.902   -9.900     1.78    0.000    0.000       26        9     2017  Maize_Short_Soroca_6June_Optimum_85_NCC.PRM
  Tot(38)        6        6     2018    252.3    476.6   1408.2   410.00      0.0    239.0     13.3     15.2      0.0    141.3       69    276.6    277.5       98     0.000     0.000     0.000     0.000      107        0        0        0        7        1        2    21.713       95     40.0    8.694   -9.900     2.08    0.000    0.000       26        9     2018  Maize_Short_Soroca_6June_Optimum_85_NCC.PRM
  Tot(39)        6        6     2019    166.3    540.1   1376.3   413.00      0.0    163.1      3.2      4.4      0.0    138.9       51    217.0    216.8       81     0.000     0.000     0.000     0.000      107        0        0        0        9       13       17    15.369       70     39.7    6.109   -9.900     1.72    0.000    0.000       26        9     2019  Maize_Short_Soroca_6June_Optimum_85_NCC.PRM
  Tot(40)        6        6     2020    156.2    528.9   1194.3   416.00      0.0    153.2      3.0      2.8      0.0    156.7       59    204.9    205.2       80     0.000     0.000     0.000     0.000      102        0        0        0       14       18       18    13.369       66     39.3    5.251   -9.900     1.46    0.000    0.000       26        9     2020  Maize_Short_Soroca_6June_Optimum_85_NCC.PRM
  Tot(41)        6        6     2021    148.8    495.1   1196.6   419.00      0.0    147.8      1.0      0.0      0.0    140.6       59    218.9    218.9       87     0.000     0.000     0.000     0.000      107        0        0        0       14       19       14    15.731       73     40.4    6.350   -9.900     1.77    0.000    0.000       26        9     2021  Maize_Short_Soroca_6June_Optimum_85_NCC.PRM
  Tot(42)        6        6     2022    204.5    441.5   1081.1   422.00      0.0    191.8     12.7     26.4      0.0    130.5       68    218.6    218.6       96     0.000     0.000     0.000     0.000      107        0        0        0       21        7        4    17.310       91     40.4    7.000   -9.900     2.01    0.000    0.000       26        9     2022  Maize_Short_Soroca_6June_Optimum_85_NCC.PRM
  Tot(43)        6        6     2023    157.9    449.4   1003.4   425.00      0.0    153.1      4.8      5.4      0.0     89.2       38    180.3    180.1      100     0.000     0.000     0.000     0.000      107        0        0        0       25       13        0    15.852       91     40.3    6.384   -9.900     2.37    0.000    0.000       26        9     2023  Maize_Short_Soroca_6June_Optimum_85_NCC.PRM
  Tot(44)        6        6     2024    114.5    592.4   1316.2   428.00      0.0    113.0      1.5      0.2      0.0    132.2       37    177.9    178.0       78     0.000     0.000     0.000     0.000       96        0        0        0        7       30       18    10.219       47     32.2    3.290   -9.900     1.07    0.000    0.000       26        9     2024  Maize_Short_Soroca_6June_Optimum_85_NCC.PRM
  Tot(45)        6        6     2025    215.1    465.3   1188.7   431.00      0.0    205.0     10.1     21.2      0.0    170.3       77    214.4    213.8       92     0.000     0.000     0.000     0.000      107        0        0        0       14       11        6    17.659       85     40.4    7.138   -9.900     1.86    0.000    0.000       26        9     2025  Maize_Short_Soroca_6June_Optimum_85_NCC.PRM
  Tot(46)        6        6     2026    194.0    443.9   1041.1   435.00      0.0    187.8      6.2      8.2      0.0     91.7       42    202.2    200.0      100     0.000     0.000     0.000     0.000      107        0        0        0       21        2        0    18.686       96     40.0    7.478   -9.900     2.54    0.000    0.000       26        9     2026  Maize_Short_Soroca_6June_Optimum_85_NCC.PRM
  Tot(47)        6        6     2027     83.0    510.3   1111.4   438.00      0.0     82.7      0.3      0.0      0.0     87.9       32    176.8    179.5       79     0.000     0.000     0.000     0.000       99        0        0        0       16       27       17    11.487       53     36.4    4.179   -9.900     1.65    0.000    0.000       26        9     2027  Maize_Short_Soroca_6June_Optimum_85_NCC.PRM
  Tot(48)        6        6     2028    150.1    539.4   1261.8   442.00      0.0    148.0      2.1      1.2      0.0    138.2       50    205.5    205.2       83     0.000     0.000     0.000     0.000      107        0        0        0       14       21       11    14.287       70     40.7    5.812   -9.900     1.69    0.000    0.000       26        9     2028  Maize_Short_Soroca_6June_Optimum_85_NCC.PRM
  Tot(49)        6        6     2029     87.1    549.2   1176.1   445.00      0.0     87.1      0.0      0.0      0.0    105.5       33    174.2    174.6       78     0.000     0.000     0.000     0.000       96        0        0        0       12       28       18    10.723       51     33.4    3.580   -9.900     1.30    0.000    0.000       26        9     2029  Maize_Short_Soroca_6June_Optimum_85_NCC.PRM
  Tot(50)        6        6     2030    153.6    577.6   1324.8   449.00      0.0    136.2     17.4     13.9      0.0    108.6       30    204.8    203.3       89     0.000     0.000     0.000     0.000      107        0        0        0       11       30        8    13.931       65     40.7    5.667   -9.900     1.81    0.000    0.000       26        9     2030  Maize_Short_Soroca_6June_Optimum_85_NCC.PRM
  Tot(51)        6        6     2031    139.6    528.1   1157.5   452.00      0.0    136.7      2.9      3.5      0.0    139.0       53    199.1    200.2       82     0.000     0.000     0.000     0.000      107        0        0        0       19       22       16    13.311       66     40.6    5.399   -9.900     1.60    0.000    0.000       26        9     2031  Maize_Short_Soroca_6June_Optimum_85_NCC.PRM
  Tot(52)        6        6     2032    101.7    550.4   1227.0   456.00      0.0     99.6      2.1      1.4      0.0    104.9       32    189.1    188.9       87     0.000     0.000     0.000     0.000      107        0        0        0       19       31       10    12.480       65     40.8    5.092   -9.900     1.73    0.000    0.000       26        9     2032  Maize_Short_Soroca_6June_Optimum_85_NCC.PRM
  Tot(53)        6        6     2033    138.8    516.8   1200.5   460.00      0.0    137.9      0.9      0.0      0.0    113.2       46    221.5    221.1       88     0.000     0.000     0.000     0.000      107        0        0        0       16       21        8    15.855       77     40.8    6.464   -9.900     1.93    0.000    0.000       26        9     2033  Maize_Short_Soroca_6June_Optimum_85_NCC.PRM
  Tot(54)        6        6     2034    181.6    477.8   1149.7   464.00      0.0    172.9      8.7     16.1      0.0    124.2       51    211.0    209.9       99     0.000     0.000     0.000     0.000      107        0        0        0       19       13        1    17.829       91     40.5    7.225   -9.900     2.16    0.000    0.000       26        9     2034  Maize_Short_Soroca_6June_Optimum_85_NCC.PRM
  Tot(55)        6        6     2035     82.7    590.3   1331.9   468.00      0.0     82.0      0.7      0.0      0.0    102.4       31    190.0    191.9       77     0.000     0.000     0.000     0.000       97        0        0        0       11       23       19    11.418       51     30.2    3.451   -9.900     1.19    0.000    0.000       26        9     2035  Maize_Short_Soroca_6June_Optimum_85_NCC.PRM
  Tot(56)        6        6     2036    199.9    421.7   1028.2   472.00      0.0    195.6      4.3      7.2      0.0    139.2       69    180.2    180.1      100     0.000     0.000     0.000     0.000      107        0        0        0       27        5        0    16.488       96     40.3    6.646   -9.900     2.08    0.000    0.000       26        9     2036  Maize_Short_Soroca_6June_Optimum_85_NCC.PRM
  Tot(57)        6        6     2037    124.0    532.4   1329.5   476.00      0.0    122.4      1.6      0.0      0.0    112.2       42    212.0    211.3       82     0.000     0.000     0.000     0.000      107        0        0        0       11       24       12    14.768       68     40.7    6.003   -9.900     1.85    0.000    0.000       26        9     2037  Maize_Short_Soroca_6June_Optimum_85_NCC.PRM
  Tot(58)        6        6     2038    174.9    573.4   1405.7   481.00      0.0    167.7      7.2     11.7      0.0    155.2       51    198.8    199.6       77     0.000     0.000     0.000     0.000       96        0        0        0        3       19       19    12.375       52     33.0    4.082   -9.900     1.20    0.000    0.000       26        9     2038  Maize_Short_Soroca_6June_Optimum_85_NCC.PRM
  Tot(59)        6        6     2039    105.1    553.1   1258.0   485.00      0.0    105.1      0.0      0.0      0.0    107.1       36    196.4    196.4       79     0.000     0.000     0.000     0.000      107        0        0        0       11       27       19    13.167       59     40.3    5.306   -9.900     1.75    0.000    0.000       26        9     2039  Maize_Short_Soroca_6June_Optimum_85_NCC.PRM
  Tot(60)        6        6     2040    127.7    539.0   1259.5   489.00      0.0    126.1      1.6      3.5      0.0    116.4       41    199.7    199.2       83     0.000     0.000     0.000     0.000      107        0        0        0       13       23       12    13.850       66     40.6    5.624   -9.900     1.78    0.000    0.000       26        9     2040  Maize_Short_Soroca_6June_Optimum_85_NCC.PRM
  Tot(61)        6        6     2041    177.2    482.1   1212.2   494.00      0.0    168.5      8.7     32.6      0.0    135.7       66    210.8    211.3       83     0.000     0.000     0.000     0.000      107        0        0        0       14       17       16    15.603       71     40.4    6.300   -9.900     1.82    0.000    0.000       26        9     2041  Maize_Short_Soroca_6June_Optimum_85_NCC.PRM
  Tot(62)        6        6     2042     64.7    684.1   1516.3   499.00      0.0     64.7      0.0      0.0      0.0     90.9       18    156.1    156.1       81     0.000     0.000     0.000     0.000      107        0        0        0        8       38       13     8.312       37     40.6    3.378   -9.900     1.37    0.000    0.000       26        9     2042  Maize_Short_Soroca_6June_Optimum_85_NCC.PRM
  Tot(63)        6        6     2043    121.9    529.6   1308.0   504.00      0.0    121.2      0.7      0.0      0.0    101.1       40    230.5    230.5       86     0.000     0.000     0.000     0.000      107        0        0        0       13       11       14    16.400       73     40.0    6.567   -9.900     1.98    0.000    0.000       26        9     2043  Maize_Short_Soroca_6June_Optimum_85_NCC.PRM
  Tot(64)        6        6     2044    273.3    442.5   1074.4   508.00      0.0    233.8     39.5     29.5      0.0    123.6       61    209.2    208.1       98     0.000     0.000     0.000     0.000      107        0        0        0       24       12        1    17.056       93     40.6    6.928   -9.900     2.08    0.000    0.000       26        9     2044  Maize_Short_Soroca_6June_Optimum_85_NCC.PRM
  Tot(65)        6        6     2045    108.2    522.0   1201.4   513.00      0.0    107.4      0.8      0.0      0.0    101.2       38    199.5    200.3       87     0.000     0.000     0.000     0.000      107        0        0        0       16       24       10    14.223       70     40.7    5.794   -9.900     1.93    0.000    0.000       26        9     2045  Maize_Short_Soroca_6June_Optimum_85_NCC.PRM
  Tot(66)        6        6     2046    167.5    533.5   1355.3   519.00      0.0    166.7      0.8      0.0      0.0    132.4       50    219.6    219.2       86     0.000     0.000     0.000     0.000      107        0        0        0       11       14       10    16.504       75     40.2    6.629   -9.900     1.88    0.000    0.000       26        9     2046  Maize_Short_Soroca_6June_Optimum_85_NCC.PRM
  Tot(67)        6        6     2047    142.8    476.5   1170.8   524.00      0.0    141.7      1.1      1.9      0.0    125.6       59    214.2    214.4       90     0.000     0.000     0.000     0.000      107        0        0        0       18       10        9    16.740       82     40.3    6.752   -9.900     1.99    0.000    0.000       26        9     2047  Maize_Short_Soroca_6June_Optimum_85_NCC.PRM
  Tot(68)        6        6     2048    186.7    564.3   1346.5   529.00      0.0    146.9     39.8     55.2      0.0    117.2       38    181.2    181.7       77     0.000     0.000     0.000     0.000       93        0        0        0        8       25       20    11.370       48     30.0    3.415   -9.900     1.15    0.000    0.000       26        9     2048  Maize_Short_Soroca_6June_Optimum_85_NCC.PRM
  Tot(69)        6        6     2049    162.1    492.2   1156.0   535.00      0.0    150.3     11.8     18.8      0.0    109.3       50    227.8    227.8       92     0.000     0.000     0.000     0.000      107        0        0        0       16        7        9    18.168       85     40.2    7.295   -9.900     2.16    0.000    0.000       26        9     2049  Maize_Short_Soroca_6June_Optimum_85_NCC.PRM
  Tot(70)        6        6     2050    149.2    445.5   1135.2   541.00      0.0    147.8      1.4      4.1      0.0    107.4       51    209.6    209.2       96     0.000     0.000     0.000     0.000      107        0        0        0       15       10        3    18.546       90     40.3    7.482   -9.900     2.36    0.000    0.000       26        9     2050  Maize_Short_Soroca_6June_Optimum_85_NCC.PRM
  Tot(71)        6        6     2051    250.5    408.8   1118.4   546.00      0.0    233.7     16.8     22.5      0.0    128.9       68    196.3    194.4      100     0.000     0.000     0.000     0.000      107        0        0        0       16        1        0    20.386       97     40.0    8.155   -9.900     2.51    0.000    0.000       26        9     2051  Maize_Short_Soroca_6June_Optimum_85_NCC.PRM
  Tot(72)        6        6     2052    130.5    611.7   1480.3   552.00      0.0    126.2      4.3      7.9      0.0    121.5       38    212.1    214.3       77     0.000     0.000     0.000     0.000       99        0        0        0        3       17       19    13.410       55     35.8    4.801   -9.900     1.45    0.000    0.000       26        9     2052  Maize_Short_Soroca_6June_Optimum_85_NCC.PRM
  Tot(73)        6        6     2053    274.7    463.4   1249.2   558.00      0.0    242.0     32.7      0.0      0.0    134.8       64    233.3    233.0       96     0.000     0.000     0.000     0.000      107        0        0        0       11       12        3    19.850       89     40.6    8.059   -9.900     2.19    0.000    0.000       26        9     2053  Maize_Short_Soroca_6June_Optimum_85_NCC.PRM
  Tot(74)        6        6     2054    139.0    531.7   1328.3   564.00      0.0    136.9      2.1      1.2      0.0    127.6       49    212.3    212.4       82     0.000     0.000     0.000     0.000      107        0        0        0        9       20       13    15.682       69     40.4    6.339   -9.900     1.87    0.000    0.000       26        9     2054  Maize_Short_Soroca_6June_Optimum_85_NCC.PRM
  Tot(75)        6        6     2055    163.5    478.2   1155.1   571.00      0.0    161.0      2.5      4.0      0.0    144.9       64    213.5    213.7       94     0.000     0.000     0.000     0.000      107        0        0        0       18       11        7    17.831       86     40.5    7.220   -9.900     2.01    0.000    0.000       26        9     2055  Maize_Short_Soroca_6June_Optimum_85_NCC.PRM
  Tot(76)        6        6     2056    134.7    620.4   1498.4   577.00      0.0    129.8      4.9     12.5      0.0    124.4       32    173.0    172.3       78     0.000     0.000     0.000     0.000      107        0        0        0        7       34       13    10.386       45     27.6    2.871   -9.900     0.97    0.000    0.000       26        9     2056  Maize_Short_Soroca_6June_Optimum_85_NCC.PRM
  Tot(77)        6        6     2057     96.6    545.1   1347.0   583.00      0.0     95.4      1.2      4.6      0.0    108.4       38    194.7    195.4       79     0.000     0.000     0.000     0.000      101        0        0        0        8       20       18    13.501       59     38.1    5.144   -9.900     1.71    0.000    0.000       26        9     2057  Maize_Short_Soroca_6June_Optimum_85_NCC.PRM
  Tot(78)        6        6     2058     53.8    585.2   1351.8   590.00      0.0     51.1      2.7      4.3      0.0     77.9       23    169.8    169.8       75     0.000     0.000     0.000     0.000       90        0        0        0        6       29       19     9.992       42     27.3    2.733   -9.900     1.11    0.000    0.000       26        9     2058  Maize_Short_Soroca_6June_Optimum_85_NCC.PRM
  Tot(79)        6        6     2059     77.5    634.5   1468.4   597.00      0.0     77.5      0.0      0.0      0.0    102.6       24    163.5    163.2       80     0.000     0.000     0.000     0.000      107        0        0        0        6       36       15     9.778       42     40.6    3.968   -9.900     1.49    0.000    0.000       26        9     2059  Maize_Short_Soroca_6June_Optimum_85_NCC.PRM
  Tot(80)        6        6     2060    168.8    437.9   1084.4   604.00      0.0    166.7      2.1      0.0      0.0     96.4       51    223.0    222.0      100     0.000     0.000     0.000     0.000      107        0        0        0       17        5        0    20.407       96     40.3    8.215   -9.900     2.57    0.000    0.000       26        9     2060  Maize_Short_Soroca_6June_Optimum_85_NCC.PRM
  Tot(81)        6        6     2061    116.8    511.9   1292.3   611.00      0.0    112.8      4.0     11.4      0.0    115.3       44    189.2    190.4       81     0.000     0.000     0.000     0.000      107        0        0        0       11       21       16    14.116       62     40.5    5.715   -9.900     1.88    0.000    0.000       26        9     2061  Maize_Short_Soroca_6June_Optimum_85_NCC.PRM
  Tot(82)        6        6     2062    167.2    555.2   1321.1   618.00      0.0    165.0      2.2      0.5      0.0    120.7       46    243.6    243.1       89     0.000     0.000     0.000     0.000      107        0        0        0       13       12        8    17.945       82     40.4    7.256   -9.900     1.99    0.000    0.000       26        9     2062  Maize_Short_Soroca_6June_Optimum_85_NCC.PRM
  Tot(83)        6        6     2063     54.7    606.9   1394.0   625.00      0.0     54.7      0.0      0.0      0.0     84.3       24    177.2    177.6       74     0.000     0.000     0.000     0.000       95        0        0        0        3       27       19    11.134       46     31.8    3.546   -9.900     1.40    0.000    0.000       26        9     2063  Maize_Short_Soroca_6June_Optimum_85_NCC.PRM
  Tot(84)        6        6     2064     92.9    573.5   1450.8   632.00      0.0     92.9      0.0      0.0      0.0     93.6       32    211.0    210.7       78     0.000     0.000     0.000     0.000      107        0        0        0        6       23       16    15.036       61     40.4    6.073   -9.900     1.99    0.000    0.000       26        9     2064  Maize_Short_Soroca_6June_Optimum_85_NCC.PRM
  Tot(85)        6        6     2065    156.2    610.3   1513.6   639.00      0.0    134.0     22.2     26.1      0.0    128.6       39    190.6    190.9       77     0.000     0.000     0.000     0.000       95        0        0        0        2       22       20    12.260       49     31.9    3.914   -9.900     1.23    0.000    0.000       26        9     2065  Maize_Short_Soroca_6June_Optimum_85_NCC.PRM
  Tot(86)        6        6     2066     59.7    621.8   1497.8   647.00      0.0     59.4      0.3      0.0      0.0     85.2       22    181.3    181.3       81     0.000     0.000     0.000     0.000      102        0        0        0        3       30       17    11.945       50     39.4    4.711   -9.900     1.77    0.000    0.000       26        9     2066  Maize_Short_Soroca_6June_Optimum_85_NCC.PRM
  Tot(87)        6        6     2067    133.3    637.1   1539.2   654.00      0.0    128.2      5.1      0.0      0.0    105.2       25    178.4    178.4       81     0.000     0.000     0.000     0.000      107        0        0        0        7       32       12    11.263       49     40.6    4.572   -9.900     1.61    0.000    0.000       26        9     2067  Maize_Short_Soroca_6June_Optimum_85_NCC.PRM
  Tot(88)        6        6     2068    141.9    533.1   1356.0   662.00      0.0    128.6     13.3     22.6      0.0    126.5       46    192.3    192.3       82     0.000     0.000     0.000     0.000      103        0        0        0        7       18       18    14.421       61     40.1    5.779   -9.900     1.84    0.000    0.000       26        9     2068  Maize_Short_Soroca_6June_Optimum_85_NCC.PRM
  Tot(89)        6        6     2069    217.9    423.9   1133.0   669.00      0.0    200.9     17.0     23.3      0.0     98.0       51    205.7    205.6      100     0.000     0.000     0.000     0.000      107        0        0        0       14        2        0    20.839       96     40.0    8.336   -9.900     2.75    0.000    0.000       26        9     2069  Maize_Short_Soroca_6June_Optimum_85_NCC.PRM
  Tot(90)        6        6     2070    109.7    552.8   1370.4   677.00      0.0    108.4      1.3      2.6      0.0     98.8       38    207.5    207.3       78     0.000     0.000     0.000     0.000      107        0        0        0       10       21       16    14.418       64     40.3    5.806   -9.900     1.90    0.000    0.000       26        9     2070  Maize_Short_Soroca_6June_Optimum_85_NCC.PRM
  Tot(91)        6        6     2071    164.6    555.1   1450.7   685.00      0.0    161.2      3.4      1.0      0.0    132.6       45    212.2    211.3       84     0.000     0.000     0.000     0.000      107        0        0        0        7       26       12    15.449       66     40.5    6.265   -9.900     1.82    0.000    0.000       26        9     2071  Maize_Short_Soroca_6June_Optimum_85_NCC.PRM
  Tot(92)        6        6     2072    218.9    488.1   1349.4   693.00      0.0    214.9      4.0      3.4      0.0    141.2       63    247.8    247.0      100     0.000     0.000     0.000     0.000      107        0        0        0        8        6        0    22.074       96     40.3    8.890   -9.900     2.29    0.000    0.000       26        9     2072  Maize_Short_Soroca_6June_Optimum_85_NCC.PRM
  Tot(93)        6        6     2073    146.7    582.6   1460.7   701.00      0.0    140.3      6.4     10.0      0.0    122.1       40    210.1    211.6       80     0.000     0.000     0.000     0.000      107        0        0        0        6       28       14    14.406       60     40.6    5.848   -9.900     1.76    0.000    0.000       26        9     2073  Maize_Short_Soroca_6June_Optimum_85_NCC.PRM
  Tot(94)        6        6     2074    162.5    630.7   1582.9   709.00      0.0    161.0      1.5      0.7      0.0    151.2       43    221.5    221.6       83     0.000     0.000     0.000     0.000      107        0        0        0        5       26       15    15.065       64     40.5    6.094   -9.900     1.63    0.000    0.000       26        9     2074  Maize_Short_Soroca_6June_Optimum_85_NCC.PRM
  Tot(95)        6        6     2075    129.9    559.3   1374.1   717.00      0.0    128.5      1.4      0.0      0.0     86.3       30    239.3    238.7       93     0.000     0.000     0.000     0.000      107        0        0        0        6       13        5    19.335       82     40.4    7.806   -9.900     2.40    0.000    0.000       26        9     2075  Maize_Short_Soroca_6June_Optimum_85_NCC.PRM
  Tot(96)        6        6     2076    155.3    521.1   1418.5   725.00      0.0    147.1      8.2      8.2      0.0    144.7       57    204.6    205.5       84     0.000     0.000     0.000     0.000      107        0        0        0        6       18       16    15.574       66     40.4    6.291   -9.900     1.80    0.000    0.000       26        9     2076  Maize_Short_Soroca_6June_Optimum_85_NCC.PRM
  Tot(97)        6        6     2077     91.4    597.1   1499.6   733.00      0.0     90.8      0.6      0.0      0.0    110.0       31    174.6    174.5       78     0.000     0.000     0.000     0.000      107        0        0        0        5       30       17    10.942       46     40.4    4.423   -9.900     1.55    0.000    0.000       26        9     2077  Maize_Short_Soroca_6June_Optimum_85_NCC.PRM
  Tot(98)        6        6     2078     77.1    636.3   1544.5   742.00      0.0     77.0      0.1      0.0      0.0    102.0       26    166.0    166.1       75     0.000     0.000     0.000     0.000      100        0        0        0        7       31       17     9.778       43     36.3    3.550   -9.900     1.34    0.000    0.000       26        9     2078  Maize_Short_Soroca_6June_Optimum_85_NCC.PRM
  Tot(99)        6        6     2079    126.8    515.6   1390.0   750.00      0.0    126.8      0.0      0.0      0.0    112.7       48    230.5    230.5       88     0.000     0.000     0.000     0.000      107        0        0        0        8       11       11    19.094       81     40.1    7.650   -9.900     2.23    0.000    0.000       26        9     2079  Maize_Short_Soroca_6June_Optimum_85_NCC.PRM
 Tot(100)        6        6     2080    117.9    504.2   1339.2   758.00      0.0    115.0      2.9      0.2      0.0     90.1       34    217.9    217.2       95     0.000     0.000     0.000     0.000      107        0        0        0        6       17        3    19.723       85     40.6    8.005   -9.900     2.60    0.000    0.000       26        9     2080  Maize_Short_Soroca_6June_Optimum_85_NCC.PRM
 Tot(101)        6        6     2081     82.1    599.0   1417.9   767.00      0.0     81.9      0.2      0.0      0.0     78.5       21    186.4    186.4       86     0.000     0.000     0.000     0.000      107        0        0        0       11       33        8    12.862       59     40.8    5.244   -9.900     1.98    0.000    0.000       26        9     2081  Maize_Short_Soroca_6June_Optimum_85_NCC.PRM
 Tot(102)        6        6     2082    301.1    438.9   1319.5   775.00      0.0    262.1     39.0      9.0      0.0    115.0       56    211.1    211.5      100     0.000     0.000     0.000     0.000      107        0        0        0        9        5        0    21.346       95     40.0    8.549   -9.900     2.62    0.000    0.000       26        9     2082  Maize_Short_Soroca_6June_Optimum_85_NCC.PRM
 Tot(103)        6        6     2083    198.5    549.8   1453.2   784.00      0.0    196.9      1.6      0.0      0.0    180.8       70    228.2    228.3       86     0.000     0.000     0.000     0.000      107        0        0        0        7       18       15    16.748       73     40.4    6.760   -9.900     1.65    0.000    0.000       26        9     2083  Maize_Short_Soroca_6June_Optimum_85_NCC.PRM
 Tot(104)        6        6     2084    145.3    525.4   1450.4   792.00      0.0    135.7      9.6      0.0      0.0     78.6       32    255.3    254.7       97     0.000     0.000     0.000     0.000      107        0        0        0        3        5        3    21.547       90     40.0    8.621   -9.900     2.58    0.000    0.000       26        9     2084  Maize_Short_Soroca_6June_Optimum_85_NCC.PRM
 Tot(105)        6        6     2085     62.9    677.9   1655.2   801.00      0.0     62.9      0.0      0.0      0.0     91.2       20    174.0    174.4       81     0.000     0.000     0.000     0.000      107        0        0        0        3       35       13    11.807       50     24.9    2.946   -9.900     1.11    0.000    0.000       26        9     2085  Maize_Short_Soroca_6June_Optimum_85_NCC.PRM
 Tot(106)        6        6     2086    209.9    519.8   1331.3   810.00      0.0    178.9     31.0      1.7      0.0    113.0       45    209.9    210.1       88     0.000     0.000     0.000     0.000      107        0        0        0       11        9        7    16.927       80     40.3    6.817   -9.900     2.11    0.000    0.000       26        9     2086  Maize_Short_Soroca_6June_Optimum_85_NCC.PRM
 Tot(107)        6        6     2087    128.5    543.0   1412.7   818.00      0.0    114.3     14.2     17.0      0.0    115.5       44    196.0    196.3       80     0.000     0.000     0.000     0.000      103        0        0        0        6       15       18    14.372       61     39.9    5.732   -9.900     1.86    0.000    0.000       26        9     2087  Maize_Short_Soroca_6June_Optimum_85_NCC.PRM
 Tot(108)        6        6     2088     84.2    639.7   1596.4   827.00      0.0     84.0      0.2      0.0      0.0    115.3       27    171.1    171.1       83     0.000     0.000     0.000     0.000      104        0        0        0        5       32       16    11.091       50     40.5    4.494   -9.900     1.59    0.000    0.000       26        9     2088  Maize_Short_Soroca_6June_Optimum_85_NCC.PRM
 Tot(109)        6        6     2089     81.8    696.8   1631.5   836.00      0.0     81.8      0.0      0.0      0.0    114.2       25    170.8    170.8       78     0.000     0.000     0.000     0.000       97        0        0        0        2       32       18    10.084       42     34.2    3.450   -9.900     1.22    0.000    0.000       26        9     2089  Maize_Short_Soroca_6June_Optimum_85_NCC.PRM
 Tot(110)        6        6     2090     95.6    584.2   1490.2   845.00      0.0     95.6      0.0      0.0      0.0    124.2       37    173.6    173.6       80     0.000     0.000     0.000     0.000      101        0        0        0        3       28       17    11.858       51     38.4    4.556   -9.900     1.54    0.000    0.000       26        9     2090  Maize_Short_Soroca_6June_Optimum_85_NCC.PRM
 Tot(111)        6        6     2091    164.7    538.5   1573.5   854.00      0.0    157.8      6.9      7.4      0.0    120.1       53    248.5    247.8       87     0.000     0.000     0.000     0.000      107        0        0        0        2        8       11    19.360       79     40.1    7.756   -9.900     2.10    0.000    0.000       26        9     2091  Maize_Short_Soroca_6June_Optimum_85_NCC.PRM
 Tot(112)        6        6     2092    266.4    581.4   1519.6   863.00      0.0    221.6     44.8      9.9      0.0    140.9       46    188.3    188.9       77     0.000     0.000     0.000     0.000      107        0        0        0        6       24       13    12.745       56     39.1    4.983   -9.900     1.51    0.000    0.000       26        9     2092  Maize_Short_Soroca_6June_Optimum_85_NCC.PRM
 Tot(113)        6        6     2093    208.4    605.2   1650.5   872.00      0.0    186.1     22.3     33.2      0.0    157.4       50    192.1    191.9       77     0.000     0.000     0.000     0.000      107        0        0        0        2       25       16    12.561       53     40.4    5.069   -9.900     1.45    0.000    0.000       26        9     2093  Maize_Short_Soroca_6June_Optimum_85_NCC.PRM
 Tot(114)        6        6     2094    186.9    569.4   1541.0   881.00      0.0    181.3      5.6      0.0      0.0    126.8       46    254.9    255.1       96     0.000     0.000     0.000     0.000      107        0        0        0        5        8        5    19.991       88     40.3    8.059   -9.900     2.11    0.000    0.000       26        9     2094  Maize_Short_Soroca_6June_Optimum_85_NCC.PRM
 Tot(115)        6        6     2095    184.0    576.2   1479.6   890.00      0.0    176.9      7.1      8.9      0.0    116.3       43    229.1    229.4       87     0.000     0.000     0.000     0.000      107        0        0        0       10       20        7    16.025       74     40.7    6.525   -9.900     1.89    0.000    0.000       26        9     2095  Maize_Short_Soroca_6June_Optimum_85_NCC.PRM
 Tot(116)        6        6     2096    163.1    628.8   1608.2   899.00      0.0    153.1     10.0     11.8      0.0    163.3       44    170.9    170.9       77     0.000     0.000     0.000     0.000       97        0        0        0        1       29       18    10.374       45     34.3    3.558   -9.900     1.10    0.000    0.000       26        9     2096  Maize_Short_Soroca_6June_Optimum_85_NCC.PRM
 Tot(117)        6        6     2097    135.3    619.8   1488.7   908.00      0.0    132.9      2.4      4.3      0.0    132.0       40    206.4    206.4       84     0.000     0.000     0.000     0.000      107        0        0        0        9       16       17    14.266       67     39.9    5.698   -9.900     1.68    0.000    0.000       26        9     2097  Maize_Short_Soroca_6June_Optimum_85_NCC.PRM
 Tot(118)        6        6     2098     99.2    638.8   1691.1   917.00      0.0     96.8      2.4      0.0      0.0    113.0       31    185.1    185.1       79     0.000     0.000     0.000     0.000       96        0        0        0        1       28       18    11.277       47     29.2    3.289   -9.900     1.12    0.000    0.000       26        9     2098  Maize_Short_Soroca_6June_Optimum_85_NCC.PRM
 Tot(119)        6        6     2099    121.2    542.8   1480.9   927.00      0.0    120.8      0.4      0.0      0.0    125.9       51    209.6    209.6       83     0.000     0.000     0.000     0.000      107        0        0        0        3       17       17    15.241       65     40.2    6.130   -9.900     1.83    0.000    0.000       26        9     2099  Maize_Short_Soroca_6June_Optimum_85_NCC.PRM
