AquaCrop 7.0 (August 2022) - Output created on (date) : 24-11-2022   at (time) : 10:05:23

    RunNr     Day1   Month1    Year1     Rain      ETo       GD     CO2      Irri   Infilt   Runoff    Drain   Upflow        E     E/Ex       Tr      TrW   Tr/Trx    SaltIn   SaltOut    SaltUp  SaltProf     Cycle   SaltStr  FertStr  WeedStr  TempStr   ExpStr   StoStr  BioMass  Brelative   HI    Y(dry)  Y(fresh)    WPet      Bin     Bout     DayN   MonthN    YearN
                                           mm       mm  degC.day    ppm        mm       mm       mm       mm       mm       mm        %       mm       mm        %    ton/ha    ton/ha    ton/ha    ton/ha      days       %        %        %        %        %        %    ton/ha        %       %    ton/ha   ton/ha    kg/m3   ton/ha   ton/ha
   Tot(1)        7        5     1981    178.8    503.2   1241.2   340.11      0.0    170.0      8.8     19.7      0.0     88.2       42    267.5    206.6       89     0.000     0.000     0.000     0.000      107        0       42       25       11        5        8    14.212       65     39.7    5.643   -9.900     1.59    0.000    0.000       27        8     1981  Maize_short_Cahul_7May_NonOptimum_85_NCC.PRM
   Tot(2)        7        5     1982    226.7    493.1   1253.0   341.22      0.0    226.0      0.7      0.0      0.0    101.4       45    280.6    216.3      100     0.000     0.000     0.000     0.000      107        0       42       25        8        3        0    16.329       74     40.0    6.536   -9.900     1.71    0.000    0.000       27        8     1982  Maize_short_Cahul_7May_NonOptimum_85_NCC.PRM
   Tot(3)        7        5     1983    290.7    494.4   1282.6   342.84      0.0    264.2     26.5     26.7      0.0    101.9       47    287.3    222.1      100     0.000     0.000     0.000     0.000      107        0       42       25        6        3        0    16.444       74     40.1    6.592   -9.900     1.69    0.000    0.000       27        8     1983  Maize_short_Cahul_7May_NonOptimum_85_NCC.PRM
   Tot(4)        7        5     1984    204.3    469.3   1125.8   344.40      0.0    202.8      1.5      3.1      0.0    133.4       69    263.3    205.4       97     0.000     0.000     0.000     0.000      107        0       42       25       13        2        2    15.311       73     40.1    6.136   -9.900     1.55    0.000    0.000       27        8     1984  Maize_short_Cahul_7May_NonOptimum_85_NCC.PRM
   Tot(5)        7        5     1985    289.7    484.3   1225.0   345.87      0.0    263.2     26.5     42.7      0.0    114.2       55    279.7    214.5      100     0.000     0.000     0.000     0.000      107        0       42       25       10        1        0    15.946       75     40.0    6.379   -9.900     1.62    0.000    0.000       27        8     1985  Maize_short_Cahul_7May_NonOptimum_85_NCC.PRM
   Tot(6)        7        5     1986    152.5    543.3   1305.4   347.19      0.0    151.8      0.7      0.0      0.0    106.4       45    261.7    205.8       84     0.000     0.000     0.000     0.000      107        0       42       25        5        8       11    13.631       61     39.6    5.397   -9.900     1.47    0.000    0.000       27        8     1986  Maize_short_Cahul_7May_NonOptimum_85_NCC.PRM
   Tot(7)        7        5     1987    241.4    495.3   1193.7   348.98      0.0    233.0      8.4      0.0      0.0     96.8       50    305.7    234.9       99     0.000     0.000     0.000     0.000      107        0       42       25       13        4        1    16.129       74     40.1    6.467   -9.900     1.61    0.000    0.000       27        8     1987  Maize_short_Cahul_7May_NonOptimum_85_NCC.PRM
   Tot(8)        7        5     1988    149.9    506.2   1303.3   351.45      0.0    148.7      1.2      3.3      0.0    130.7       64    236.1    186.4       80     0.000     0.000     0.000     0.000      107        0       42       25        8        8       18    12.055       53     39.2    4.726   -9.900     1.29    0.000    0.000       27        8     1988  Maize_short_Cahul_7May_NonOptimum_85_NCC.PRM
   Tot(9)        7        5     1989    201.9    495.5   1205.1   352.89      0.0    201.5      0.4      0.0      0.0    102.1       51    296.7    228.1       97     0.000     0.000     0.000     0.000      107        0       42       25       13        4        2    16.064       72     40.2    6.459   -9.900     1.62    0.000    0.000       27        8     1989  Maize_short_Cahul_7May_NonOptimum_85_NCC.PRM
  Tot(10)        7        5     1990    134.9    531.5   1218.0   354.16      0.0    134.6      0.3      0.0      0.0    122.0       53    234.0    183.8       79     0.000     0.000     0.000     0.000      107        0       42       25       13       13       17    11.869       53     39.8    4.727   -9.900     1.33    0.000    0.000       27        8     1990  Maize_short_Cahul_7May_NonOptimum_85_NCC.PRM
  Tot(11)        7        5     1991    385.6    438.1   1229.6   355.48      0.0    339.7     45.9     69.7      0.0    119.1       77    296.0    227.1      100     0.000     0.000     0.000     0.000      107        0       42       25       15        0        0    17.345       75     40.0    6.942   -9.900     1.67    0.000    0.000       27        8     1991  Maize_short_Cahul_7May_NonOptimum_85_NCC.PRM
  Tot(12)        7        5     1992    170.3    523.5   1259.8   356.27      0.0    170.0      0.3      0.0      0.0    127.8       64    262.4    205.0       81     0.000     0.000     0.000     0.000      107        0       42       25       14        6       14    13.317       59     39.2    5.216   -9.900     1.34    0.000    0.000       27        8     1992  Maize_short_Cahul_7May_NonOptimum_85_NCC.PRM
  Tot(13)        7        5     1993    212.3    519.6   1215.6   356.95      0.0    200.6     11.7     23.7      0.0    126.2       61    265.1    205.2       86     0.000     0.000     0.000     0.000      107        0       42       25       10        6       10    13.655       63     39.7    5.418   -9.900     1.38    0.000    0.000       27        8     1993  Maize_short_Cahul_7May_NonOptimum_85_NCC.PRM
  Tot(14)        7        5     1994    227.8    533.6   1328.9   358.63      0.0    212.2     15.6     35.4      0.0     99.1       42    269.6    211.7       87     0.000     0.000     0.000     0.000      107        0       42       25        8       11        9    13.788       60     39.7    5.474   -9.900     1.48    0.000    0.000       27        8     1994  Maize_short_Cahul_7May_NonOptimum_85_NCC.PRM
  Tot(15)        7        5     1995    166.2    526.8   1338.7   360.62      0.0    162.9      3.3      3.5      0.0    105.2       47    265.1    206.7       85     0.000     0.000     0.000     0.000      107        0       42       25        7       10       13    13.537       58     39.7    5.372   -9.900     1.45    0.000    0.000       27        8     1995  Maize_short_Cahul_7May_NonOptimum_85_NCC.PRM
  Tot(16)        7        5     1996    151.7    562.1   1315.4   362.37      0.0    142.1      9.6      0.0      0.0    116.4       36    182.9    146.2       79     0.000     0.000     0.000     0.000      107        0       42       25        7       26       16     8.755       39     40.3    3.527   -9.900     1.18    0.000    0.000       27        8     1996  Maize_short_Cahul_7May_NonOptimum_85_NCC.PRM
  Tot(17)        7        5     1997    419.7    471.7   1250.0   363.47      0.0    375.1     44.6      0.3      0.0    121.8       59    281.7    217.7      100     0.000     0.000     0.000     0.000      107        0       42       25       10        2        0    17.133       75     40.0    6.859   -9.900     1.70    0.000    0.000       27        8     1997  Maize_short_Cahul_7May_NonOptimum_85_NCC.PRM
  Tot(18)        7        5     1998    168.8    516.5   1294.8   366.50      0.0    167.9      0.9      2.6      0.0    120.0       61    269.0    208.8       84     0.000     0.000     0.000     0.000      107        0       42       25       12        4       13    13.732       60     39.4    5.413   -9.900     1.39    0.000    0.000       27        8     1998  Maize_short_Cahul_7May_NonOptimum_85_NCC.PRM
  Tot(19)        7        5     1999    300.8    546.7   1379.6   368.14      0.0    283.6     17.2      0.0      0.0    112.6       50    332.5    256.5       98     0.000     0.000     0.000     0.000      107        0       42       25        7        4        2    16.881       72     40.1    6.772   -9.900     1.52    0.000    0.000       27        8     1999  Maize_short_Cahul_7May_NonOptimum_85_NCC.PRM
  Tot(20)        7        5     2000     73.9    617.8   1328.9   369.41      0.0     73.9      0.0      0.0      0.0     81.9       24    209.2    167.7       77     0.000     0.000     0.000     0.000      106        0       42       25        7       24       20     9.938       44     39.6    3.932   -9.900     1.36    0.000    0.000       27        8     2000  Maize_short_Cahul_7May_NonOptimum_85_NCC.PRM
  Tot(21)        7        5     2001    201.1    552.7   1318.6   371.07      0.0    172.7     28.4     17.8      0.0    115.8       52    262.1    203.1       80     0.000     0.000     0.000     0.000      107        0       42       25       10        3       17    13.023       56     39.0    5.080   -9.900     1.34    0.000    0.000       27        8     2001  Maize_short_Cahul_7May_NonOptimum_85_NCC.PRM
  Tot(22)        7        5     2002    297.9    563.7   1394.2   373.16      0.0    259.4     38.5      0.0      0.0    114.6       42    288.9    226.0       92     0.000     0.000     0.000     0.000      107        0       42       25        5       24        4    14.860       63     40.8    6.068   -9.900     1.50    0.000    0.000       27        8     2002  Maize_short_Cahul_7May_NonOptimum_85_NCC.PRM
  Tot(23)        7        5     2003    102.9    602.8   1413.4   375.80      0.0    102.9      0.0      0.0      0.0    101.7       29    219.7    176.9       82     0.000     0.000     0.000     0.000      107        0       42       25        3       26       16    11.268       48     40.1    4.516   -9.900     1.41    0.000    0.000       27        8     2003  Maize_short_Cahul_7May_NonOptimum_85_NCC.PRM
  Tot(24)        7        5     2004    257.1    519.7   1224.3   377.49      0.0    253.2      3.9      0.0      0.0    135.8       63    301.4    233.4       95     0.000     0.000     0.000     0.000      107        0       42       25       12       13        3    16.024       69     40.4    6.470   -9.900     1.48    0.000    0.000       27        8     2004  Maize_short_Cahul_7May_NonOptimum_85_NCC.PRM
  Tot(25)        7        5     2005    378.7    520.8   1288.0   379.80      0.0    361.0     17.7     10.1      0.0    144.1       69    326.2    252.0      100     0.000     0.000     0.000     0.000      107        0       42       25        8        3        0    17.524       75     40.1    7.025   -9.900     1.49    0.000    0.000       27        8     2005  Maize_short_Cahul_7May_NonOptimum_85_NCC.PRM
  Tot(26)        7        5     2006    163.6    573.8   1322.8   381.90      0.0    155.9      7.7     15.6      0.0    122.3       46    230.5    183.8       76     0.000     0.000     0.000     0.000      107        0       42       25        7       19       18    11.150       47     39.9    4.447   -9.900     1.26    0.000    0.000       27        8     2006  Maize_short_Cahul_7May_NonOptimum_85_NCC.PRM
  Tot(27)        7        5     2007    116.6    680.4   1503.0   383.77      0.0    115.3      1.3      0.0      0.0    111.5       28    210.4    169.0       75     0.000     0.000     0.000     0.000      107        0       42       25        1       28       19     8.812       37     40.1    3.531   -9.900     1.10    0.000    0.000       27        8     2007  Maize_short_Cahul_7May_NonOptimum_85_NCC.PRM
  Tot(28)        7        5     2008    125.7    607.1   1356.8   385.59      0.0    125.7      0.0      0.0      0.0    100.0       36    250.4    197.2       77     0.000     0.000     0.000     0.000      107        0       42       25        4       20       19    11.702       49     39.6    4.636   -9.900     1.32    0.000    0.000       27        8     2008  Maize_short_Cahul_7May_NonOptimum_85_NCC.PRM
  Tot(29)        7        5     2009    135.6    616.1   1391.5   387.37      0.0    135.0      0.6      0.0      0.0     91.0       31    264.7    207.9       82     0.000     0.000     0.000     0.000      107        0       42       25        5       12       17    12.227       51     39.5    4.828   -9.900     1.36    0.000    0.000       27        8     2009  Maize_short_Cahul_7May_NonOptimum_85_NCC.PRM
  Tot(30)        7        5     2010    259.9    550.9   1434.7   389.85      0.0    241.6     18.3      0.8      0.0    128.8       57    321.2    247.6       94     0.000     0.000     0.000     0.000      107        0       42       25        7        2        5    16.366       70     39.9    6.534   -9.900     1.45    0.000    0.000       27        8     2010  Maize_short_Cahul_7May_NonOptimum_85_NCC.PRM
  Tot(31)        7        5     2011    181.1    568.4   1367.2   391.63      0.0    176.8      4.3      2.4      0.0    123.9       52    273.1    213.5       82     0.000     0.000     0.000     0.000      107        0       42       25        4        6       13    13.765       59     39.7    5.462   -9.900     1.38    0.000    0.000       27        8     2011  Maize_short_Cahul_7May_NonOptimum_85_NCC.PRM
  Tot(32)        7        5     2012    233.1    640.5   1478.9   393.82      0.0    227.4      5.7      5.3      0.0    161.6       56    262.1    205.8       75     0.000     0.000     0.000     0.000      107        0       42       25        5       18       20    11.412       48     39.6    4.515   -9.900     1.07    0.000    0.000       27        8     2012  Maize_short_Cahul_7May_NonOptimum_85_NCC.PRM
  Tot(33)        7        5     2013    235.4    581.7   1439.0   396.48      0.0    222.9     12.5      0.0      0.0    123.0       50    300.1    234.2       85     0.000     0.000     0.000     0.000      107        0       42       25        3        6       11    14.896       62     39.4    5.868   -9.900     1.39    0.000    0.000       27        8     2013  Maize_short_Cahul_7May_NonOptimum_85_NCC.PRM
  Tot(34)        7        5     2014    237.3    550.5   1373.2   398.55      0.0    233.6      3.7      5.5      0.0    144.3       67    295.7    228.3       86     0.000     0.000     0.000     0.000      107        0       42       25        5        7       10    14.986       63     39.8    5.965   -9.900     1.36    0.000    0.000       27        8     2014  Maize_short_Cahul_7May_NonOptimum_85_NCC.PRM
  Tot(35)        7        5     2015    139.4    626.7   1394.8   402.00      0.0    138.0      1.4      0.0      0.0     98.5       32    250.1    198.3       78     0.000     0.000     0.000     0.000      107        0       42       25        5       12       14    11.721       49     39.4    4.614   -9.900     1.32    0.000    0.000       27        8     2015  Maize_short_Cahul_7May_NonOptimum_85_NCC.PRM
  Tot(36)        7        5     2016    181.5    571.0   1373.9   404.00      0.0    180.8      0.7      0.3      0.0    147.1       66    254.5    199.1       74     0.000     0.000     0.000     0.000      107        0       42       25        8       11       21    11.937       50     39.3    4.689   -9.900     1.17    0.000    0.000       27        8     2016  Maize_short_Cahul_7May_NonOptimum_85_NCC.PRM
  Tot(37)        7        5     2017    266.4    570.6   1365.8   407.00      0.0    238.1     28.3      0.0      0.0    103.1       46    341.8    264.0       94     0.000     0.000     0.000     0.000      107        0       42       25        7        5        5    16.648       70     40.1    6.677   -9.900     1.50    0.000    0.000       27        8     2017  Maize_short_Cahul_7May_NonOptimum_85_NCC.PRM
  Tot(38)        7        5     2018    180.2    562.5   1480.2   410.00      0.0    173.9      6.3      1.1      0.0     97.7       37    289.9    226.6       91     0.000     0.000     0.000     0.000      107        0       42       25        3       10        6    15.811       66     40.1    6.335   -9.900     1.63    0.000    0.000       27        8     2018  Maize_short_Cahul_7May_NonOptimum_85_NCC.PRM
  Tot(39)        7        5     2019    187.7    591.3   1433.5   413.00      0.0    186.5      1.2      1.0      0.0    157.7       62    253.3    199.6       76     0.000     0.000     0.000     0.000      107        0       42       25        3       15       19    12.368       51     39.4    4.878   -9.900     1.19    0.000    0.000       27        8     2019  Maize_short_Cahul_7May_NonOptimum_85_NCC.PRM
  Tot(40)        7        5     2020    141.8    574.0   1300.6   416.00      0.0    138.2      3.6     11.0      0.0    120.7       48    232.6    182.1       75     0.000     0.000     0.000     0.000      107        0       42       25       10       13       22    11.519       48     39.0    4.493   -9.900     1.27    0.000    0.000       27        8     2020  Maize_short_Cahul_7May_NonOptimum_85_NCC.PRM
  Tot(41)        7        5     2021    152.5    573.5   1309.9   419.00      0.0    151.8      0.7      0.1      0.0    104.9       44    270.2    209.9       82     0.000     0.000     0.000     0.000      107        0       42       25        6        5       16    12.937       55     39.2    5.075   -9.900     1.35    0.000    0.000       27        8     2021  Maize_short_Cahul_7May_NonOptimum_85_NCC.PRM
  Tot(42)        7        5     2022    183.7    473.3   1056.1   422.00      0.0    176.1      7.6     23.3      0.0    121.1       72    249.0    192.9       85     0.000     0.000     0.000     0.000      107        0       42       25       19        3       11    14.123       63     39.7    5.613   -9.900     1.52    0.000    0.000       27        8     2022  Maize_short_Cahul_7May_NonOptimum_85_NCC.PRM
  Tot(43)        7        5     2023    188.8    493.7   1120.0   425.00      0.0    168.7     20.1     12.1      0.0    101.3       51    223.2    174.8       81     0.000     0.000     0.000     0.000      107        0       42       25       16       13       11    11.942       54     40.3    4.815   -9.900     1.48    0.000    0.000       27        8     2023  Maize_short_Cahul_7May_NonOptimum_85_NCC.PRM
  Tot(44)        7        5     2024     95.1    624.3   1427.6   428.00      0.0     93.7      1.4      1.9      0.0    109.4       32    198.5    157.1       74     0.000     0.000     0.000     0.000       96        0       42       25        3       21       21     9.246       38     32.5    3.004   -9.900     0.99    0.000    0.000       27        8     2024  Maize_short_Cahul_7May_NonOptimum_85_NCC.PRM
  Tot(45)        7        5     2025    183.6    534.7   1281.4   431.00      0.0    182.7      0.9      0.3      0.0    130.7       67    271.4    210.1       82     0.000     0.000     0.000     0.000      107        0       42       25        8        2       15    13.607       58     39.4    5.368   -9.900     1.34    0.000    0.000       27        8     2025  Maize_short_Cahul_7May_NonOptimum_85_NCC.PRM
  Tot(46)        7        5     2026    534.8    423.6    984.7   435.00      0.0    373.6    161.2    129.3      0.0    121.6       77    242.6    185.7      100     0.000     0.000     0.000     0.000      107        0       42       25       22        0        0    15.647       75     40.0    6.259   -9.900     1.72    0.000    0.000       27        8     2026  Maize_short_Cahul_7May_NonOptimum_85_NCC.PRM
  Tot(47)        7        5     2027    104.6    529.5   1163.6   438.00      0.0    102.9      1.7      6.3      0.0    107.3       48    213.0    167.9       77     0.000     0.000     0.000     0.000      107        0       42       25       16        6       19    11.625       51     39.1    4.543   -9.900     1.42    0.000    0.000       27        8     2027  Maize_short_Cahul_7May_NonOptimum_85_NCC.PRM
  Tot(48)        7        5     2028    187.9    596.1   1340.8   442.00      0.0    172.2     15.7     32.1      0.0    132.8       54    234.9    183.4       72     0.000     0.000     0.000     0.000      105        0       42       25        6       10       24    11.255       46     38.2    4.297   -9.900     1.17    0.000    0.000       27        8     2028  Maize_short_Cahul_7May_NonOptimum_85_NCC.PRM
  Tot(49)        7        5     2029     67.7    581.8   1304.3   445.00      0.0     67.7      0.0      0.7      0.0     94.7       32    188.5    148.5       74     0.000     0.000     0.000     0.000       96        0       42       25       10       20       20     9.236       39     32.8    3.027   -9.900     1.10    0.000    0.000       27        8     2029  Maize_short_Cahul_7May_NonOptimum_85_NCC.PRM
  Tot(50)        7        5     2030     77.5    653.6   1438.8   449.00      0.0     77.3      0.2      0.2      0.0    106.4       29    172.8    137.8       71     0.000     0.000     0.000     0.000       87        0       42       25       10       29       20     7.320       30     24.2    1.772   -9.900     0.64    0.000    0.000       27        8     2030  Maize_short_Cahul_7May_NonOptimum_85_NCC.PRM
  Tot(51)        7        5     2031     85.2    568.1   1240.2   452.00      0.0     77.3      7.9      9.9      0.0     91.7       33    196.0    153.9       74     0.000     0.000     0.000     0.000      100        0       42       25        9       16       20    10.263       43     36.3    3.724   -9.900     1.30    0.000    0.000       27        8     2031  Maize_short_Cahul_7May_NonOptimum_85_NCC.PRM
  Tot(52)        7        5     2032    151.5    601.9   1352.8   456.00      0.0    137.4     14.1     17.6      0.0    138.9       44    190.9    151.0       74     0.000     0.000     0.000     0.000       93        0       42       25       11       23       20     8.919       37     29.9    2.662   -9.900     0.82    0.000    0.000       27        8     2032  Maize_short_Cahul_7May_NonOptimum_85_NCC.PRM
  Tot(53)        7        5     2033     82.7    612.9   1365.1   460.00      0.0     82.7      0.0      0.0      0.0    113.2       34    180.9    143.4       74     0.000     0.000     0.000     0.000       94        0       42       25        9       24       20     8.855       36     30.8    2.724   -9.900     0.93    0.000    0.000       27        8     2033  Maize_short_Cahul_7May_NonOptimum_85_NCC.PRM
  Tot(54)        7        5     2034    162.0    483.4   1177.5   464.00      0.0    158.1      3.9     10.7      0.0    124.9       71    239.7    185.8       81     0.000     0.000     0.000     0.000      107        0       42       25       14        9       14    13.605       58     40.1    5.450   -9.900     1.49    0.000    0.000       27        8     2034  Maize_short_Cahul_7May_NonOptimum_85_NCC.PRM
  Tot(55)        7        5     2035    114.8    569.8   1282.0   468.00      0.0    112.8      2.0      4.8      0.0    113.3       46    219.7    172.1       75     0.000     0.000     0.000     0.000      103        0       42       25        9       11       20    11.354       47     38.8    4.405   -9.900     1.33    0.000    0.000       27        8     2035  Maize_short_Cahul_7May_NonOptimum_85_NCC.PRM
  Tot(56)        7        5     2036    185.8    483.4   1165.1   472.00      0.0    163.7     22.1      9.3      0.0     89.5       46    268.8    207.8       95     0.000     0.000     0.000     0.000      107        0       42       25       13        5        4    15.551       70     40.0    6.215   -9.900     1.73    0.000    0.000       27        8     2036  Maize_short_Cahul_7May_NonOptimum_85_NCC.PRM
  Tot(57)        7        5     2037    102.4    603.3   1404.5   476.00      0.0    100.5      1.9      2.4      0.0    109.1       34    202.5    160.8       75     0.000     0.000     0.000     0.000      107        0       42       25        5       19       22    10.215       41     39.6    4.047   -9.900     1.30    0.000    0.000       27        8     2037  Maize_short_Cahul_7May_NonOptimum_85_NCC.PRM
  Tot(58)        7        5     2038    170.4    607.7   1363.9   481.00      0.0    157.9     12.5     12.6      0.0    146.7       52    220.4    173.0       75     0.000     0.000     0.000     0.000       99        0       42       25        9       15       21    10.646       43     35.2    3.752   -9.900     1.03    0.000    0.000       27        8     2038  Maize_short_Cahul_7May_NonOptimum_85_NCC.PRM
  Tot(59)        7        5     2039     94.9    588.0   1320.1   485.00      0.0     94.4      0.5      0.0      0.0    114.8       38    197.9    155.8       76     0.000     0.000     0.000     0.000       98        0       42       25       11       19       20     9.994       41     34.6    3.461   -9.900     1.12    0.000    0.000       27        8     2039  Maize_short_Cahul_7May_NonOptimum_85_NCC.PRM
  Tot(60)        7        5     2040    168.0    570.8   1294.0   489.00      0.0    153.5     14.5     33.8      0.0    117.1       47    224.3    175.5       76     0.000     0.000     0.000     0.000      101        0       42       25        9       14       21    11.205       45     37.1    4.160   -9.900     1.23    0.000    0.000       27        8     2040  Maize_short_Cahul_7May_NonOptimum_85_NCC.PRM
  Tot(61)        7        5     2041    231.7    522.0   1270.2   494.00      0.0    220.2     11.5      9.9      0.0    132.1       69    293.6    225.7       89     0.000     0.000     0.000     0.000      107        0       42       25        9        0        8    16.311       68     39.8    6.492   -9.900     1.52    0.000    0.000       27        8     2041  Maize_short_Cahul_7May_NonOptimum_85_NCC.PRM
  Tot(62)        7        5     2042      9.1    690.9   1500.3   499.00      0.0      9.1      0.0      0.0      0.0     49.1       11    161.8    131.8       75     0.000     0.000     0.000     0.000       89        0       42       25        7       33       19     7.193       29     26.3    1.894   -9.900     0.91    0.000    0.000       27        8     2042  Maize_short_Cahul_7May_NonOptimum_85_NCC.PRM
  Tot(63)        7        5     2043     95.4    550.3   1391.6   504.00      0.0     93.9      1.5      2.0      0.0     72.7       30    239.0    187.0       79     0.000     0.000     0.000     0.000      107        0       42       25        4       12       16    13.224       54     39.8    5.268   -9.900     1.69    0.000    0.000       27        8     2043  Maize_short_Cahul_7May_NonOptimum_85_NCC.PRM
  Tot(64)        7        5     2044    112.7    543.1   1275.5   508.00      0.0    112.7      0.0      0.0      0.0    109.6       47    225.0    176.2       78     0.000     0.000     0.000     0.000      105        0       42       25        7        9       19    12.057       49     39.2    4.726   -9.900     1.41    0.000    0.000       27        8     2044  Maize_short_Cahul_7May_NonOptimum_85_NCC.PRM
  Tot(65)        7        5     2045    271.6    546.2   1219.6   513.00      0.0    212.0     59.6     76.6      0.0    122.7       57    225.6    176.1       76     0.000     0.000     0.000     0.000      102        0       42       25       18        8       20    11.420       47     37.9    4.330   -9.900     1.25    0.000    0.000       27        8     2045  Maize_short_Cahul_7May_NonOptimum_85_NCC.PRM
  Tot(66)        7        5     2046    118.9    576.7   1340.7   519.00      0.0    117.2      1.7      4.7      0.0    128.9       47    202.6    159.1       77     0.000     0.000     0.000     0.000       98        0       42       25       12       17       20    10.446       42     34.6    3.612   -9.900     1.10    0.000    0.000       27        8     2046  Maize_short_Cahul_7May_NonOptimum_85_NCC.PRM
  Tot(67)        7        5     2047     68.9    542.6   1277.6   524.00      0.0     68.8      0.1      0.1      0.0     87.4       37    205.8    161.1       74     0.000     0.000     0.000     0.000      107        0       42       25        9       12       22    11.569       47     39.0    4.509   -9.900     1.54    0.000    0.000       27        8     2047  Maize_short_Cahul_7May_NonOptimum_85_NCC.PRM
  Tot(68)        7        5     2048    182.2    598.0   1368.4   529.00      0.0    162.1     20.1     32.7      0.0    120.9       48    233.6    181.6       76     0.000     0.000     0.000     0.000      105        0       42       25        8        7       21    11.582       48     38.6    4.475   -9.900     1.26    0.000    0.000       27        8     2048  Maize_short_Cahul_7May_NonOptimum_85_NCC.PRM
  Tot(69)        7        5     2049    153.4    521.8   1263.0   535.00      0.0    142.6     10.8     22.5      0.0    117.7       52    221.3    172.9       80     0.000     0.000     0.000     0.000      107        0       42       25        8       10       18    12.686       52     39.7    5.036   -9.900     1.49    0.000    0.000       27        8     2049  Maize_short_Cahul_7May_NonOptimum_85_NCC.PRM
  Tot(70)        7        5     2050    169.3    497.7   1219.9   541.00      0.0    163.3      6.0      7.6      0.0    133.1       69    242.8    188.1       84     0.000     0.000     0.000     0.000      107        0       42       25       15        5       14    14.261       59     39.8    5.670   -9.900     1.51    0.000    0.000       27        8     2050  Maize_short_Cahul_7May_NonOptimum_85_NCC.PRM
  Tot(71)        7        5     2051    261.9    444.2   1139.8   546.00      0.0    255.1      6.8      1.3      0.0    115.3       65    258.3    197.9      100     0.000     0.000     0.000     0.000      107        0       42       25       11        1        0    17.702       75     40.0    7.083   -9.900     1.90    0.000    0.000       27        8     2051  Maize_short_Cahul_7May_NonOptimum_85_NCC.PRM
  Tot(72)        7        5     2052    138.1    606.2   1426.4   552.00      0.0    130.8      7.3     19.9      0.0    123.0       40    205.7    165.2       76     0.000     0.000     0.000     0.000       98        0       42       25        5       21       20    10.235       41     34.4    3.521   -9.900     1.08    0.000    0.000       27        8     2052  Maize_short_Cahul_7May_NonOptimum_85_NCC.PRM
  Tot(73)        7        5     2053    263.2    497.0   1254.3   558.00      0.0    233.9     29.3     63.2      0.0    132.2       81    260.1    201.0       83     0.000     0.000     0.000     0.000      107        0       42       25       13        3       15    14.102       58     39.4    5.554   -9.900     1.42    0.000    0.000       27        8     2053  Maize_short_Cahul_7May_NonOptimum_85_NCC.PRM
  Tot(74)        7        5     2054    211.2    537.1   1332.4   564.00      0.0    185.5     25.7     36.3      0.0    133.4       64    238.5    186.0       80     0.000     0.000     0.000     0.000      107        0       42       25        7        6       19    13.008       52     39.2    5.098   -9.900     1.37    0.000    0.000       27        8     2054  Maize_short_Cahul_7May_NonOptimum_85_NCC.PRM
  Tot(75)        7        5     2055    216.9    548.9   1276.0   571.00      0.0    202.9     14.0     21.3      0.0    139.2       68    266.5    206.6       82     0.000     0.000     0.000     0.000      107        0       42       25        6        3       15    14.426       59     39.3    5.668   -9.900     1.40    0.000    0.000       27        8     2055  Maize_short_Cahul_7May_NonOptimum_85_NCC.PRM
  Tot(76)        7        5     2056     65.9    696.2   1593.3   577.00      0.0     65.0      0.9      4.7      0.0     93.9       22    172.3    138.4       73     0.000     0.000     0.000     0.000       89        0       42       25        2       30       20     7.691       30     25.8    1.982   -9.900     0.75    0.000    0.000       27        8     2056  Maize_short_Cahul_7May_NonOptimum_85_NCC.PRM
  Tot(77)        7        5     2057    183.9    554.4   1316.5   583.00      0.0    173.4     10.5      2.3      0.0    121.1       57    272.9    211.6       83     0.000     0.000     0.000     0.000      107        0       42       25       12        4       13    14.787       60     39.4    5.829   -9.900     1.48    0.000    0.000       27        8     2057  Maize_short_Cahul_7May_NonOptimum_85_NCC.PRM
  Tot(78)        7        5     2058    110.7    593.4   1326.0   590.00      0.0    107.1      3.6     13.4      0.0    109.5       43    207.6    162.8       72     0.000     0.000     0.000     0.000      100        0       42       25       12       12       21    10.737       44     35.8    3.847   -9.900     1.22    0.000    0.000       27        8     2058  Maize_short_Cahul_7May_NonOptimum_85_NCC.PRM
  Tot(79)        7        5     2059    138.1    613.2   1426.9   597.00      0.0    129.5      8.6     20.1      0.0    125.1       42    204.5    161.5       74     0.000     0.000     0.000     0.000       98        0       42       25        8       20       21    10.271       41     34.2    3.512   -9.900     1.07    0.000    0.000       27        8     2059  Maize_short_Cahul_7May_NonOptimum_85_NCC.PRM
  Tot(80)        7        5     2060    147.6    488.3   1177.2   604.00      0.0    142.1      5.5      0.0      0.0     85.2       40    256.8    197.6       96     0.000     0.000     0.000     0.000      107        0       42       25       11        5        3    16.775       71     40.0    6.715   -9.900     1.96    0.000    0.000       27        8     2060  Maize_short_Cahul_7May_NonOptimum_85_NCC.PRM
  Tot(81)        7        5     2061    222.3    547.7   1287.6   611.00      0.0    197.7     24.6     57.4      0.0    124.5       65    241.9    189.2       73     0.000     0.000     0.000     0.000      107        0       42       25        9       10       19    13.031       53     39.3    5.118   -9.900     1.40    0.000    0.000       27        8     2061  Maize_short_Cahul_7May_NonOptimum_85_NCC.PRM
  Tot(82)        7        5     2062    103.5    634.7   1475.3   618.00      0.0    100.3      3.2      3.5      0.0    119.2       37    194.2    153.1       74     0.000     0.000     0.000     0.000       96        0       42       25        6       19       21     9.760       39     32.5    3.171   -9.900     1.02    0.000    0.000       27        8     2062  Maize_short_Cahul_7May_NonOptimum_85_NCC.PRM
  Tot(83)        7        5     2063     60.2    645.8   1483.5   625.00      0.0     59.9      0.3      0.0      0.0     90.7       25    178.1    141.8       75     0.000     0.000     0.000     0.000       93        0       42       25        5       26       19     8.864       35     30.1    2.671   -9.900     1.00    0.000    0.000       27        8     2063  Maize_short_Cahul_7May_NonOptimum_85_NCC.PRM
  Tot(84)        7        5     2064    102.9    619.3   1423.1   632.00      0.0    102.8      0.1      0.0      0.0    115.5       40    207.4    162.1       74     0.000     0.000     0.000     0.000       99        0       42       25        8       14       21    10.283       42     35.2    3.615   -9.900     1.15    0.000    0.000       27        8     2064  Maize_short_Cahul_7May_NonOptimum_85_NCC.PRM
  Tot(85)        7        5     2065    194.1    571.8   1442.0   639.00      0.0    184.4      9.7      7.4      0.0    127.7       63    274.5    212.6       80     0.000     0.000     0.000     0.000      107        0       42       25        6        3       16    14.243       57     39.0    5.556   -9.900     1.38    0.000    0.000       27        8     2065  Maize_short_Cahul_7May_NonOptimum_85_NCC.PRM
  Tot(86)        7        5     2066     39.8    679.6   1532.0   647.00      0.0     38.7      1.1      3.8      0.0     72.1       17    169.6    136.4       74     0.000     0.000     0.000     0.000       92        0       42       25        5       30       20     8.157       32     28.8    2.351   -9.900     0.99    0.000    0.000       27        8     2066  Maize_short_Cahul_7May_NonOptimum_85_NCC.PRM
  Tot(87)        7        5     2067    126.6    673.4   1498.0   654.00      0.0    118.0      8.6      5.0      0.0    124.6       36    203.7    161.0       75     0.000     0.000     0.000     0.000       95        0       42       25        7       21       20     9.576       38     31.7    3.034   -9.900     0.93    0.000    0.000       27        8     2067  Maize_short_Cahul_7May_NonOptimum_85_NCC.PRM
  Tot(88)        7        5     2068    109.1    598.0   1429.4   662.00      0.0    108.1      1.0      7.4      0.0    124.0       42    191.0    150.4       76     0.000     0.000     0.000     0.000       96        0       42       25        5       20       20     9.898       40     32.8    3.244   -9.900     1.04    0.000    0.000       27        8     2068  Maize_short_Cahul_7May_NonOptimum_85_NCC.PRM
  Tot(89)        7        5     2069    189.9    548.1   1383.4   669.00      0.0    180.2      9.7     20.2      0.0    147.7       68    235.8    183.7       79     0.000     0.000     0.000     0.000      107        0       42       25        4       10       18    13.335       54     39.5    5.273   -9.900     1.37    0.000    0.000       27        8     2069  Maize_short_Cahul_7May_NonOptimum_85_NCC.PRM
  Tot(90)        7        5     2070     93.2    576.2   1370.5   677.00      0.0     91.7      1.5      2.6      0.0    100.0       40    209.7    164.2       76     0.000     0.000     0.000     0.000      101        0       42       25       12       14       20    11.160       45     37.4    4.178   -9.900     1.36    0.000    0.000       27        8     2070  Maize_short_Cahul_7May_NonOptimum_85_NCC.PRM
  Tot(91)        7        5     2071    158.2    594.2   1503.7   685.00      0.0    148.7      9.5      5.4      0.0    109.7       44    255.5    199.9       81     0.000     0.000     0.000     0.000      107        0       42       25        4        9       17    13.351       53     39.4    5.258   -9.900     1.44    0.000    0.000       27        8     2071  Maize_short_Cahul_7May_NonOptimum_85_NCC.PRM
  Tot(92)        7        5     2072    196.1    531.7   1456.8   693.00      0.0    181.5     14.6     25.7      0.0     98.9       49    276.1    213.4       88     0.000     0.000     0.000     0.000      107        0       42       25        3        4       10    15.829       64     39.8    6.304   -9.900     1.68    0.000    0.000       27        8     2072  Maize_short_Cahul_7May_NonOptimum_85_NCC.PRM
  Tot(93)        7        5     2073    240.0    583.4   1428.0   701.00      0.0    175.5     64.5     48.9      0.0    140.7       52    203.3    159.7       76     0.000     0.000     0.000     0.000       99        0       42       25        5       14       20    10.783       43     35.5    3.825   -9.900     1.13    0.000    0.000       27        8     2073  Maize_short_Cahul_7May_NonOptimum_85_NCC.PRM
  Tot(94)        7        5     2074    122.5    669.3   1651.8   709.00      0.0    116.1      6.4     18.2      0.0    121.9       33    183.6    146.4       73     0.000     0.000     0.000     0.000       90        0       42       25        3       28       21     8.209       33     26.8    2.196   -9.900     0.74    0.000    0.000       27        8     2074  Maize_short_Cahul_7May_NonOptimum_85_NCC.PRM
  Tot(95)        7        5     2075     68.8    618.2   1414.3   717.00      0.0     67.8      1.0      2.9      0.0     92.6       28    180.9    143.5       75     0.000     0.000     0.000     0.000       93        0       42       25        9       25       20     8.903       36     29.9    2.660   -9.900     0.98    0.000    0.000       27        8     2075  Maize_short_Cahul_7May_NonOptimum_85_NCC.PRM
  Tot(96)        7        5     2076    188.4    566.5   1389.0   725.00      0.0    180.9      7.5      8.5      0.0    131.9       66    265.0    205.2       80     0.000     0.000     0.000     0.000      107        0       42       25        7        2       16    14.498       58     39.2    5.685   -9.900     1.43    0.000    0.000       27        8     2076  Maize_short_Cahul_7May_NonOptimum_85_NCC.PRM
  Tot(97)        7        5     2077     49.3    665.4   1503.5   733.00      0.0     49.3      0.0      0.0      0.0     77.5       22    189.5    150.5       72     0.000     0.000     0.000     0.000       97        0       42       25        3       21       21     9.548       38     33.3    3.181   -9.900     1.20    0.000    0.000       27        8     2077  Maize_short_Cahul_7May_NonOptimum_85_NCC.PRM
  Tot(98)        7        5     2078     74.4    650.3   1509.7   742.00      0.0     73.2      1.2      0.7      0.0     99.1       28    181.8    144.6       75     0.000     0.000     0.000     0.000       92        0       42       25        7       28       19     8.699       35     29.2    2.539   -9.900     0.91    0.000    0.000       27        8     2078  Maize_short_Cahul_7May_NonOptimum_85_NCC.PRM
  Tot(99)        7        5     2079    118.3    564.3   1461.1   750.00      0.0    113.5      4.8     11.1      0.0    123.9       48    194.7    152.7       76     0.000     0.000     0.000     0.000       99        0       42       25        6       17       19    10.419       43     35.9    3.737   -9.900     1.18    0.000    0.000       27        8     2079  Maize_short_Cahul_7May_NonOptimum_85_NCC.PRM
 Tot(100)        7        5     2080    102.9    563.1   1311.4   758.00      0.0    102.2      0.7      1.9      0.0    114.1       45    204.4    160.4       77     0.000     0.000     0.000     0.000      101        0       42       25       13       16       20    10.907       44     37.6    4.098   -9.900     1.29    0.000    0.000       27        8     2080  Maize_short_Cahul_7May_NonOptimum_85_NCC.PRM
 Tot(101)        7        5     2081     65.1    622.3   1490.6   767.00      0.0     65.1      0.0      0.0      0.0     88.1       29    195.1    153.6       73     0.000     0.000     0.000     0.000      107        0       42       25        4       19       28     9.948       40     33.6    3.343   -9.900     1.18    0.000    0.000       27        8     2081  Maize_short_Cahul_7May_NonOptimum_85_NCC.PRM
 Tot(102)        7        5     2082    255.3    524.9   1441.9   775.00      0.0    242.5     12.8     14.7      0.0    147.4       76    284.6    219.2       93     0.000     0.000     0.000     0.000      107        0       42       25        6        4        5    16.870       69     40.2    6.786   -9.900     1.57    0.000    0.000       27        8     2082  Maize_short_Cahul_7May_NonOptimum_85_NCC.PRM
 Tot(103)        7        5     2083     98.4    603.8   1560.1   784.00      0.0     98.1      0.3      0.0      0.0    116.7       39    197.2    156.4       76     0.000     0.000     0.000     0.000       99        0       42       25        3       19       19    10.341       42     35.7    3.688   -9.900     1.19    0.000    0.000       27        8     2083  Maize_short_Cahul_7May_NonOptimum_85_NCC.PRM
 Tot(104)        7        5     2084    123.1    526.1   1364.2   792.00      0.0    122.4      0.7      0.0      0.0     90.0       43    250.7    195.1       86     0.000     0.000     0.000     0.000      107        0       42       25        8       10        9    15.359       63     39.8    6.115   -9.900     1.79    0.000    0.000       27        8     2084  Maize_short_Cahul_7May_NonOptimum_85_NCC.PRM
 Tot(105)        7        5     2085     55.9    729.6   1735.9   801.00      0.0     55.8      0.1      0.0      0.0     93.4       20    158.1    128.6       75     0.000     0.000     0.000     0.000       88        0       42       25        3       34       19     6.948       28     25.0    1.740   -9.900     0.73    0.000    0.000       27        8     2085  Maize_short_Cahul_7May_NonOptimum_85_NCC.PRM
 Tot(106)        7        5     2086    109.1    588.9   1495.6   810.00      0.0    108.9      0.2      0.0      0.0    100.2       39    232.1    181.8       79     0.000     0.000     0.000     0.000      107        0       42       25        2       14       16    13.228       54     39.4    5.206   -9.900     1.57    0.000    0.000       27        8     2086  Maize_short_Cahul_7May_NonOptimum_85_NCC.PRM
 Tot(107)        7        5     2087    163.8    574.9   1430.6   818.00      0.0    161.0      2.8      1.8      0.0    128.9       61    254.5    197.0       80     0.000     0.000     0.000     0.000      107        0       42       25        7        3       15    13.860       58     39.3    5.441   -9.900     1.42    0.000    0.000       27        8     2087  Maize_short_Cahul_7May_NonOptimum_85_NCC.PRM
 Tot(108)        7        5     2088    168.0    637.7   1642.0   827.00      0.0    147.5     20.5     43.2      0.0    124.7       39    194.9    153.8       75     0.000     0.000     0.000     0.000       96        0       42       25        5       22       20     9.699       40     32.9    3.188   -9.900     1.01    0.000    0.000       27        8     2088  Maize_short_Cahul_7May_NonOptimum_85_NCC.PRM
 Tot(109)        7        5     2089     75.2    644.8   1476.3   836.00      0.0     75.2      0.0      0.9      0.0    100.7       30    184.4    146.5       76     0.000     0.000     0.000     0.000       94        0       42       25        9       26       20     8.891       36     30.8    2.742   -9.900     0.97    0.000    0.000       27        8     2089  Maize_short_Cahul_7May_NonOptimum_85_NCC.PRM
 Tot(110)        7        5     2090    104.3    648.7   1557.9   845.00      0.0    102.9      1.4      1.1      0.0    125.7       37    184.4    146.2       75     0.000     0.000     0.000     0.000       93        0       42       25        7       23       20     9.022       37     30.1    2.719   -9.900     0.89    0.000    0.000       27        8     2090  Maize_short_Cahul_7May_NonOptimum_85_NCC.PRM
 Tot(111)        7        5     2091    155.2    552.6   1424.0   854.00      0.0    150.1      5.1      9.5      0.0    119.5       60    244.0    189.6       80     0.000     0.000     0.000     0.000      107        0       42       25        6        6       17    13.541       56     39.2    5.310   -9.900     1.46    0.000    0.000       27        8     2091  Maize_short_Cahul_7May_NonOptimum_85_NCC.PRM
 Tot(112)        7        5     2092    103.9    664.8   1598.3   863.00      0.0    103.3      0.6      0.0      0.0    113.0       36    210.4    165.2       73     0.000     0.000     0.000     0.000       99        0       42       25        3       15       21    10.272       42     35.1    3.604   -9.900     1.12    0.000    0.000       27        8     2092  Maize_short_Cahul_7May_NonOptimum_85_NCC.PRM
 Tot(113)        7        5     2093    214.9    649.3   1667.8   872.00      0.0    207.9      7.0      8.1      0.0    149.8       64    275.3    213.4       78     0.000     0.000     0.000     0.000      107        0       42       25        1        2       18    13.603       56     38.8    5.276   -9.900     1.24    0.000    0.000       27        8     2093  Maize_short_Cahul_7May_NonOptimum_85_NCC.PRM
 Tot(114)        7        5     2094    137.1    593.5   1533.0   881.00      0.0    122.8     14.3     32.4      0.0    110.4       40    194.0    152.7       77     0.000     0.000     0.000     0.000       97        0       42       25        6       19       20     9.988       41     33.8    3.374   -9.900     1.12    0.000    0.000       27        8     2094  Maize_short_Cahul_7May_NonOptimum_85_NCC.PRM
 Tot(115)        7        5     2095    206.0    576.1   1531.4   890.00      0.0    194.9     11.1     16.3      0.0    140.5       69    261.3    202.0       81     0.000     0.000     0.000     0.000      107        0       42       25        4        2       15    14.180       59     39.3    5.568   -9.900     1.39    0.000    0.000       27        8     2095  Maize_short_Cahul_7May_NonOptimum_85_NCC.PRM
 Tot(116)        7        5     2096     98.5    683.7   1683.7   899.00      0.0     97.8      0.7      3.9      0.0    105.3       31    208.1    164.2       74     0.000     0.000     0.000     0.000      100        0       42       25        1       17       21    10.181       42     36.2    3.682   -9.900     1.18    0.000    0.000       27        8     2096  Maize_short_Cahul_7May_NonOptimum_85_NCC.PRM
 Tot(117)        7        5     2097     91.1    693.1   1642.5   908.00      0.0     90.9      0.2      0.0      0.0    116.4       29    180.6    144.4       78     0.000     0.000     0.000     0.000       94        0       42       25        3       29       19     8.233       34     31.1    2.557   -9.900     0.87    0.000    0.000       27        8     2097  Maize_short_Cahul_7May_NonOptimum_85_NCC.PRM
 Tot(118)        7        5     2098    240.4    582.4   1495.3   917.00      0.0    215.9     24.5     38.0      0.0    142.0       69    257.3    199.8       81     0.000     0.000     0.000     0.000      107        0       42       25        8        7       16    13.329       56     39.6    5.273   -9.900     1.32    0.000    0.000       27        8     2098  Maize_short_Cahul_7May_NonOptimum_85_NCC.PRM
 Tot(119)        7        5     2099    112.2    589.4   1464.0   927.00      0.0    107.9      4.3      7.6      0.0     90.3       39    234.0    182.7       77     0.000     0.000     0.000     0.000      107        0       42       25        7        7       17    13.229       55     39.1    5.173   -9.900     1.59    0.000    0.000       27        8     2099  Maize_short_Cahul_7May_NonOptimum_85_NCC.PRM
