AquaCrop 7.0 (August 2022) - Output created on (date) : 23-11-2022   at (time) : 14:32:58

    RunNr     Day1   Month1    Year1     Rain      ETo       GD     CO2      Irri   Infilt   Runoff    Drain   Upflow        E     E/Ex       Tr      TrW   Tr/Trx    SaltIn   SaltOut    SaltUp  SaltProf     Cycle   SaltStr  FertStr  WeedStr  TempStr   ExpStr   StoStr  BioMass  Brelative   HI    Y(dry)  Y(fresh)    WPet      Bin     Bout     DayN   MonthN    YearN
                                           mm       mm  degC.day    ppm        mm       mm       mm       mm       mm       mm        %       mm       mm        %    ton/ha    ton/ha    ton/ha    ton/ha      days       %        %        %        %        %        %    ton/ha        %       %    ton/ha   ton/ha    kg/m3   ton/ha   ton/ha
   Tot(1)       22        5     1981    240.8    460.2   1219.9   340.11      0.0    210.3     30.5     45.0      0.0    104.1       48    244.4    244.4      100     0.000     0.000     0.000     0.000      107        0        0        0       13        3        0    19.498       95     40.1    7.815   -9.900     2.24    0.000    0.000       11        9     1981  Maize_Short_Soroca_22May_Optimum_85_MOHC.PRM
   Tot(2)       22        5     1982    274.6    445.7   1204.3   341.22      0.0    238.9     35.7     42.9      0.0    128.1       64    250.3    250.0      100     0.000     0.000     0.000     0.000      107        0        0        0       11        2        0    20.705       96     40.0    8.291   -9.900     2.19    0.000    0.000       11        9     1982  Maize_Short_Soroca_22May_Optimum_85_MOHC.PRM
   Tot(3)       22        5     1983    219.2    435.3   1214.1   342.84      0.0    214.3      4.9      0.1      0.0    106.4       56    242.1    241.1      100     0.000     0.000     0.000     0.000      107        0        0        0       11        1        0    20.404       97     40.0    8.162   -9.900     2.34    0.000    0.000       11        9     1983  Maize_Short_Soroca_22May_Optimum_85_MOHC.PRM
   Tot(4)       22        5     1984    324.1    420.3   1075.3   344.40      0.0    305.9     18.2     19.5      0.0    155.4       90    234.9    236.4      100     0.000     0.000     0.000     0.000      107        0        0        0       18        0        0    19.737       98     40.0    7.895   -9.900     2.02    0.000    0.000       11        9     1984  Maize_Short_Soroca_22May_Optimum_85_MOHC.PRM
   Tot(5)       22        5     1985    381.4    448.7   1131.4   345.87      0.0    343.1     38.3     63.4      0.0    143.5       80    261.4    261.9      100     0.000     0.000     0.000     0.000      107        0        0        0       17        1        0    19.769       97     40.1    7.930   -9.900     1.96    0.000    0.000       11        9     1985  Maize_Short_Soroca_22May_Optimum_85_MOHC.PRM
   Tot(6)       22        5     1986    162.2    512.9   1240.3   347.19      0.0    161.8      0.4      0.0      0.0    109.8       46    253.4    252.8       94     0.000     0.000     0.000     0.000      107        0        0        0       13        7        5    18.052       88     40.1    7.241   -9.900     1.99    0.000    0.000       11        9     1986  Maize_Short_Soroca_22May_Optimum_85_MOHC.PRM
   Tot(7)       22        5     1987    256.6    456.5   1133.8   348.98      0.0    246.2     10.4     15.1      0.0    136.1       68    245.6    245.3      100     0.000     0.000     0.000     0.000      107        0        0        0       17       12        0    18.730       94     40.5    7.588   -9.900     1.99    0.000    0.000       11        9     1987  Maize_Short_Soroca_22May_Optimum_85_MOHC.PRM
   Tot(8)       22        5     1988    324.3    426.4   1235.2   351.45      0.0    304.9     19.4     38.9      0.0    140.6       84    261.7    262.8      100     0.000     0.000     0.000     0.000      107        0        0        0       12        1        0    20.589       98     40.1    8.252   -9.900     2.05    0.000    0.000       11        9     1988  Maize_Short_Soroca_22May_Optimum_85_MOHC.PRM
   Tot(9)       22        5     1989    398.6    434.0   1151.2   352.89      0.0    334.0     64.6     24.5      0.0    114.7       60    245.6    246.2      100     0.000     0.000     0.000     0.000      107        0        0        0       14        4        0    19.987       96     40.1    8.023   -9.900     2.23    0.000    0.000       11        9     1989  Maize_Short_Soroca_22May_Optimum_85_MOHC.PRM
  Tot(10)       22        5     1990    193.6    463.7   1109.4   354.16      0.0    190.8      2.8      6.4      0.0    145.0       75    243.2    243.1       92     0.000     0.000     0.000     0.000      107        0        0        0       17        6        8    18.291       87     40.2    7.347   -9.900     1.89    0.000    0.000       11        9     1990  Maize_Short_Soroca_22May_Optimum_85_MOHC.PRM
  Tot(11)       22        5     1991    419.0    410.7   1159.5   355.48      0.0    366.8     52.2     52.7      0.0    138.5       81    241.6    240.6      100     0.000     0.000     0.000     0.000      107        0        0        0       14        1        0    20.834       98     40.0    8.339   -9.900     2.19    0.000    0.000       11        9     1991  Maize_Short_Soroca_22May_Optimum_85_MOHC.PRM
  Tot(12)       22        5     1992    208.9    511.5   1268.1   356.27      0.0    203.2      5.7     14.5      0.0    147.2       71    241.9    243.0       80     0.000     0.000     0.000     0.000      107        0        0        0       11       13       14    15.503       70     39.8    6.174   -9.900     1.59    0.000    0.000       11        9     1992  Maize_Short_Soroca_22May_Optimum_85_MOHC.PRM
  Tot(13)       22        5     1993    240.0    450.5   1102.8   356.95      0.0    233.7      6.3      5.7      0.0    119.2       61    243.7    242.4      100     0.000     0.000     0.000     0.000      107        0        0        0       17        2        0    19.030       97     40.1    7.623   -9.900     2.10    0.000    0.000       11        9     1993  Maize_Short_Soroca_22May_Optimum_85_MOHC.PRM
  Tot(14)       22        5     1994    254.5    502.2   1248.0   358.63      0.0    222.8     31.7     20.8      0.0    124.3       56    248.7    248.7       87     0.000     0.000     0.000     0.000      107        0        0        0       12       13        8    17.227       76     40.5    6.973   -9.900     1.87    0.000    0.000       11        9     1994  Maize_Short_Soroca_22May_Optimum_85_MOHC.PRM
  Tot(15)       22        5     1995    376.0    484.7   1320.2   360.62      0.0    320.5     55.5     21.5      0.0    109.4       50    278.5    278.2      100     0.000     0.000     0.000     0.000      107        0        0        0        6        4        0    21.120       95     40.1    8.460   -9.900     2.18    0.000    0.000       11        9     1995  Maize_Short_Soroca_22May_Optimum_85_MOHC.PRM
  Tot(16)       22        5     1996    300.9    473.4   1194.7   362.37      0.0    280.7     20.2     14.7      0.0     98.5       42    244.4    246.0      100     0.000     0.000     0.000     0.000      107        0        0        0       13        3        0    19.712       95     40.0    7.885   -9.900     2.30    0.000    0.000       11        9     1996  Maize_Short_Soroca_22May_Optimum_85_MOHC.PRM
  Tot(17)       22        5     1997    330.4    417.9   1118.9   363.47      0.0    311.2     19.2     16.2      0.0    121.6       65    228.4    228.1      100     0.000     0.000     0.000     0.000      107        0        0        0       15        1        0    20.623       97     40.0    8.249   -9.900     2.36    0.000    0.000       11        9     1997  Maize_Short_Soroca_22May_Optimum_85_MOHC.PRM
  Tot(18)       22        5     1998    279.4    435.7   1188.1   366.50      0.0    261.5     17.9     17.9      0.0    117.5       66    246.1    244.0      100     0.000     0.000     0.000     0.000      107        0        0        0       15        1        0    19.204       97     40.0    7.683   -9.900     2.11    0.000    0.000       11        9     1998  Maize_Short_Soroca_22May_Optimum_85_MOHC.PRM
  Tot(19)       22        5     1999    167.8    514.8   1406.8   368.14      0.0    167.8      0.0      0.0      0.0    106.3       41    257.4    258.5       94     0.000     0.000     0.000     0.000      107        0        0        0        3       16        4    19.349       84     40.5    7.845   -9.900     2.16    0.000    0.000       11        9     1999  Maize_Short_Soroca_22May_Optimum_85_MOHC.PRM
  Tot(20)       22        5     2000    266.5    494.1   1237.4   369.41      0.0    256.4     10.1     11.7      0.0    112.2       48    270.3    269.9      100     0.000     0.000     0.000     0.000      107        0        0        0       12        2        0    20.703       95     40.0    8.282   -9.900     2.17    0.000    0.000       11        9     2000  Maize_Short_Soroca_22May_Optimum_85_MOHC.PRM
  Tot(21)       22        5     2001    315.8    471.8   1256.9   371.07      0.0    291.7     24.1     19.9      0.0    135.7       74    285.6    287.3       96     0.000     0.000     0.000     0.000      107        0        0        0       13        1        4    20.484       92     40.0    8.190   -9.900     1.94    0.000    0.000       11        9     2001  Maize_Short_Soroca_22May_Optimum_85_MOHC.PRM
  Tot(22)       22        5     2002    383.6    500.9   1374.8   373.16      0.0    349.5     34.1      2.8      0.0    144.8       64    295.6    295.2      100     0.000     0.000     0.000     0.000      107        0        0        0        7       10        0    21.668       93     40.1    8.690   -9.900     1.97    0.000    0.000       11        9     2002  Maize_Short_Soroca_22May_Optimum_85_MOHC.PRM
  Tot(23)       22        5     2003    341.0    524.1   1271.7   375.80      0.0    288.4     52.6     47.8      0.0    102.3       39    266.2    265.0      100     0.000     0.000     0.000     0.000      107        0        0        0       11        4        0    20.090       94     40.0    8.038   -9.900     2.18    0.000    0.000       11        9     2003  Maize_Short_Soroca_22May_Optimum_85_MOHC.PRM
  Tot(24)       22        5     2004    246.8    480.3   1170.9   377.49      0.0    225.9     20.9      0.0      0.0     76.1       31    243.8    245.6      100     0.000     0.000     0.000     0.000      107        0        0        0       12        7        0    20.107       93     40.1    8.065   -9.900     2.52    0.000    0.000       11        9     2004  Maize_Short_Soroca_22May_Optimum_85_MOHC.PRM
  Tot(25)       22        5     2005    191.9    472.0   1278.0   379.80      0.0    190.3      1.6      0.5      0.0    108.7       51    269.4    267.5       99     0.000     0.000     0.000     0.000      107        0        0        0        8        5        1    21.696       95     40.2    8.724   -9.900     2.31    0.000    0.000       11        9     2005  Maize_Short_Soroca_22May_Optimum_85_MOHC.PRM
  Tot(26)       22        5     2006    297.5    485.6   1226.9   381.90      0.0    283.3     14.2     20.3      0.0    130.8       64    286.8    287.4       99     0.000     0.000     0.000     0.000      107        0        0        0       14       11        0    20.990       94     40.5    8.503   -9.900     2.04    0.000    0.000       11        9     2006  Maize_Short_Soroca_22May_Optimum_85_MOHC.PRM
  Tot(27)       22        5     2007    171.9    576.2   1439.4   383.77      0.0    171.9      0.0      0.0      0.0    111.7       35    248.0    248.3       90     0.000     0.000     0.000     0.000      107        0        0        0        5       24        7    16.856       74     40.8    6.870   -9.900     1.91    0.000    0.000       11        9     2007  Maize_Short_Soroca_22May_Optimum_85_MOHC.PRM
  Tot(28)       22        5     2008    348.1    533.3   1326.6   385.59      0.0    288.2     59.9      0.7      0.0    123.6       54    317.8    317.1      100     0.000     0.000     0.000     0.000      107        0        0        0        6        6        0    21.950       94     40.0    8.780   -9.900     1.99    0.000    0.000       11        9     2008  Maize_Short_Soroca_22May_Optimum_85_MOHC.PRM
  Tot(29)       22        5     2009    203.0    548.8   1334.5   387.37      0.0    201.4      1.6      0.3      0.0    154.6       62    265.5    266.8       86     0.000     0.000     0.000     0.000      107        0        0        0        7        8       13    17.783       76     40.0    7.113   -9.900     1.69    0.000    0.000       11        9     2009  Maize_Short_Soroca_22May_Optimum_85_MOHC.PRM
  Tot(30)       22        5     2010    347.1    480.7   1367.9   389.85      0.0    318.5     28.6     55.2      0.0    140.3       70    283.4    282.4       98     0.000     0.000     0.000     0.000      107        0        0        0        9        1        1    21.105       96     40.0    8.452   -9.900     2.00    0.000    0.000       11        9     2010  Maize_Short_Soroca_22May_Optimum_85_MOHC.PRM
  Tot(31)       22        5     2011    182.7    539.3   1341.3   391.63      0.0    180.8      1.9      0.0      0.0    124.7       48    270.0    270.8       91     0.000     0.000     0.000     0.000      107        0        0        0        6        7        8    19.361       84     39.9    7.733   -9.900     1.96    0.000    0.000       11        9     2011  Maize_Short_Soroca_22May_Optimum_85_MOHC.PRM
  Tot(32)       22        5     2012    126.3    606.4   1414.1   393.82      0.0    126.0      0.3      0.0      0.0    116.6       35    223.3    223.5       79     0.000     0.000     0.000     0.000      107        0        0        0        6       25       16    13.891       61     40.4    5.608   -9.900     1.65    0.000    0.000       11        9     2012  Maize_Short_Soroca_22May_Optimum_85_MOHC.PRM
  Tot(33)       22        5     2013    245.3    495.7   1303.4   396.48      0.0    225.7     19.6     20.7      0.0    155.8       71    237.6    237.3       86     0.000     0.000     0.000     0.000      107        0        0        0        7        9        8    17.534       77     40.2    7.050   -9.900     1.79    0.000    0.000       11        9     2013  Maize_Short_Soroca_22May_Optimum_85_MOHC.PRM
  Tot(34)       22        5     2014    253.7    516.6   1359.2   398.55      0.0    231.9     21.8     10.0      0.0    103.5       48    307.9    306.5       99     0.000     0.000     0.000     0.000      107        0        0        0        7        2        1    22.091       95     40.0    8.837   -9.900     2.15    0.000    0.000       11        9     2014  Maize_Short_Soroca_22May_Optimum_85_MOHC.PRM
  Tot(35)       22        5     2015     64.6    613.4   1397.9   402.00      0.0     64.6      0.0      0.0      0.0     90.2       24    179.8    182.0       77     0.000     0.000     0.000     0.000       97        0        0        0        5       28       19    10.594       46     34.0    3.601   -9.900     1.39    0.000    0.000       11        9     2015  Maize_Short_Soroca_22May_Optimum_85_MOHC.PRM
  Tot(36)       22        5     2016    223.5    541.1   1411.6   404.00      0.0    221.3      2.2      0.5      0.0    172.0       75    271.0    270.3       84     0.000     0.000     0.000     0.000      107        0        0        0        5       16       13    17.870       75     40.4    7.219   -9.900     1.63    0.000    0.000       11        9     2016  Maize_Short_Soroca_22May_Optimum_85_MOHC.PRM
  Tot(37)       22        5     2017    190.2    557.9   1350.9   407.00      0.0    188.7      1.5      0.3      0.0    148.1       57    258.0    258.1       86     0.000     0.000     0.000     0.000      107        0        0        0        6       12       13    17.404       75     40.1    6.980   -9.900     1.72    0.000    0.000       11        9     2017  Maize_Short_Soroca_22May_Optimum_85_MOHC.PRM
  Tot(38)       22        5     2018    247.0    517.0   1451.6   410.00      0.0    234.6     12.4      7.5      0.0    111.3       46    293.1    292.7       99     0.000     0.000     0.000     0.000      107        0        0        0        4        3        1    22.356       94     40.0    8.941   -9.900     2.21    0.000    0.000       11        9     2018  Maize_Short_Soroca_22May_Optimum_85_MOHC.PRM
  Tot(39)       22        5     2019    224.9    551.2   1441.3   413.00      0.0    207.2     17.7     24.8      0.0    162.1       65    244.6    245.3       82     0.000     0.000     0.000     0.000      107        0        0        0        3        9       16    17.160       73     39.6    6.802   -9.900     1.67    0.000    0.000       11        9     2019  Maize_Short_Soroca_22May_Optimum_85_MOHC.PRM
  Tot(40)       22        5     2020    144.2    626.5   1481.5   416.00      0.0    139.2      5.0      4.2      0.0    107.7       39    250.7    251.0       76     0.000     0.000     0.000     0.000      101        0        0        0        4        8       20    14.169       59     36.7    5.207   -9.900     1.46    0.000    0.000       11        9     2020  Maize_Short_Soroca_22May_Optimum_85_MOHC.PRM
  Tot(41)       22        5     2021     69.3    733.1   1596.0   419.00      0.0     69.3      0.0      0.0      0.0     97.9       19    177.6    177.6       78     0.000     0.000     0.000     0.000       93        0        0        0        2       35       17     8.927       37     30.1    2.689   -9.900     0.99    0.000    0.000       11        9     2021  Maize_Short_Soroca_22May_Optimum_85_MOHC.PRM
  Tot(42)       22        5     2022     72.0    631.7   1510.3   422.00      0.0     72.0      0.0      0.0      0.0     92.1       27    193.3    193.3       73     0.000     0.000     0.000     0.000       94        0        0        0        6       22       20    10.793       45     20.8    2.246   -9.900     0.80    0.000    0.000       11        9     2022  Maize_Short_Soroca_22May_Optimum_85_MOHC.PRM
  Tot(43)       22        5     2023    155.0    607.3   1429.1   425.00      0.0    154.0      1.0      0.0      0.0    153.8       43    180.3    180.3       74     0.000     0.000     0.000     0.000       91        0        0        0        2       29       20     9.826       42     27.9    2.743   -9.900     0.88    0.000    0.000       11        9     2023  Maize_Short_Soroca_22May_Optimum_85_MOHC.PRM
  Tot(44)       22        5     2024     40.0    675.0   1597.8   428.00      0.0     40.0      0.0      0.0      0.0     74.9       18    170.4    170.4       73     0.000     0.000     0.000     0.000       90        0        0        0        1       31       20     9.439       38     26.8    2.534   -9.900     1.05    0.000    0.000       11        9     2024  Maize_Short_Soroca_22May_Optimum_85_MOHC.PRM
  Tot(45)       22        5     2025    196.5    566.3   1409.8   431.00      0.0    186.9      9.6      6.5      0.0    130.5       50    245.4    244.2       81     0.000     0.000     0.000     0.000      107        0        0        0        8       23       11    15.927       70     40.5    6.445   -9.900     1.71    0.000    0.000       11        9     2025  Maize_Short_Soroca_22May_Optimum_85_MOHC.PRM
  Tot(46)       22        5     2026    185.8    640.0   1512.9   435.00      0.0    173.2     12.6      0.9      0.0    124.9       35    198.6    199.8       72     0.000     0.000     0.000     0.000       94        0        0        0        4       23       20    10.609       46     30.7    3.255   -9.900     1.03    0.000    0.000       11        9     2026  Maize_Short_Soroca_22May_Optimum_85_MOHC.PRM
  Tot(47)       22        5     2027    290.9    539.5   1465.9   438.00      0.0    276.2     14.7      0.0      0.0    148.1       62    268.7    266.5       86     0.000     0.000     0.000     0.000      107        0        0        0        4        7        9    19.682       82     39.9    7.849   -9.900     1.88    0.000    0.000       11        9     2027  Maize_Short_Soroca_22May_Optimum_85_MOHC.PRM
  Tot(48)       22        5     2028    115.4    645.0   1550.8   442.00      0.0    112.4      3.0      5.4      0.0    118.5       34    189.4    191.7       72     0.000     0.000     0.000     0.000      107        0        0        0        4       25       35    10.032       41     24.9    2.503   -9.900     0.81    0.000    0.000       11        9     2028  Maize_Short_Soroca_22May_Optimum_85_MOHC.PRM
  Tot(49)       22        5     2029    159.5    596.1   1555.0   445.00      0.0    159.0      0.5      0.0      0.0    169.2       52    199.0    199.0       76     0.000     0.000     0.000     0.000       96        0        0        0        1       25       19    12.013       50     32.9    3.951   -9.900     1.09    0.000    0.000       11        9     2029  Maize_Short_Soroca_22May_Optimum_85_MOHC.PRM
  Tot(50)       22        5     2030    246.5    551.5   1454.3   449.00      0.0    222.6     23.9     37.4      0.0    150.1       60    225.7    225.7       78     0.000     0.000     0.000     0.000      107        0        0        0        4       16       19    15.123       62     39.4    5.957   -9.900     1.59    0.000    0.000       11        9     2030  Maize_Short_Soroca_22May_Optimum_85_MOHC.PRM
  Tot(51)       22        5     2031    138.8    671.8   1585.6   452.00      0.0    135.4      3.4      0.2      0.0    122.4       35    233.5    233.5       72     0.000     0.000     0.000     0.000      107        0        0        0        4       24       23    12.808       53     36.9    4.722   -9.900     1.33    0.000    0.000       11        9     2031  Maize_Short_Soroca_22May_Optimum_85_MOHC.PRM
  Tot(52)       22        5     2032    169.3    554.0   1466.0   456.00      0.0    164.4      4.9      8.3      0.0    106.0       37    258.9    257.8       90     0.000     0.000     0.000     0.000      107        0        0        0        4       22        7    18.747       77     40.3    7.550   -9.900     2.07    0.000    0.000       11        9     2032  Maize_Short_Soroca_22May_Optimum_85_MOHC.PRM
  Tot(53)       22        5     2033    215.3    624.3   1591.6   460.00      0.0    203.9     11.4     21.3      0.0    145.0       47    253.5    253.8       79     0.000     0.000     0.000     0.000      107        0        0        0        2       20       16    15.610       64     39.8    6.217   -9.900     1.56    0.000    0.000       11        9     2033  Maize_Short_Soroca_22May_Optimum_85_MOHC.PRM
  Tot(54)       22        5     2034     78.1    752.2   1691.1   464.00      0.0     70.8      7.3     26.0      0.0     81.2       15    152.2    153.0       73     0.000     0.000     0.000     0.000       83        0        0        0        2       38       20     6.789       27     20.5    1.391   -9.900     0.60    0.000    0.000       11        9     2034  Maize_Short_Soroca_22May_Optimum_85_MOHC.PRM
  Tot(55)       22        5     2035     67.1    684.5   1565.5   468.00      0.0     67.0      0.1      0.0      0.0     90.0       22    173.2    173.2       71     0.000     0.000     0.000     0.000       86        0        0        0        6       30       21     8.775       35     22.7    1.992   -9.900     0.79    0.000    0.000       11        9     2035  Maize_Short_Soroca_22May_Optimum_85_MOHC.PRM
  Tot(56)       22        5     2036    124.5    679.0   1679.0   472.00      0.0    123.8      0.7      0.0      0.0    135.0       35    199.8    199.8       73     0.000     0.000     0.000     0.000       93        0        0        0        2       26       21    10.651       43     29.6    3.156   -9.900     0.95    0.000    0.000       11        9     2036  Maize_Short_Soroca_22May_Optimum_85_MOHC.PRM
  Tot(57)       22        5     2037    149.3    521.0   1342.6   476.00      0.0    142.7      6.6      8.2      0.0    109.1       44    215.9    214.4       79     0.000     0.000     0.000     0.000      107        0        0        0        9       22       13    15.286       65     40.4    6.178   -9.900     1.90    0.000    0.000       11        9     2037  Maize_Short_Soroca_22May_Optimum_85_MOHC.PRM
  Tot(58)       22        5     2038    303.0    537.2   1500.4   481.00      0.0    250.7     52.3     68.5      0.0    126.7       65    268.8    270.3       81     0.000     0.000     0.000     0.000      107        0        0        0        6        6       17    17.191       69     39.2    6.742   -9.900     1.70    0.000    0.000       11        9     2038  Maize_Short_Soroca_22May_Optimum_85_MOHC.PRM
  Tot(59)       22        5     2039     73.6    723.4   1718.0   485.00      0.0     73.6      0.0      0.0      0.0    109.1       23    162.4    162.5       73     0.000     0.000     0.000     0.000       86        0        0        0        2       35       20     8.232       33     18.5    1.524   -9.900     0.57    0.000    0.000       11        9     2039  Maize_Short_Soroca_22May_Optimum_85_MOHC.PRM
  Tot(60)       22        5     2040     56.8    770.5   1740.5   489.00      0.0     56.8      0.0      0.0      0.0     97.7       17    156.6    156.6       79     0.000     0.000     0.000     0.000       94        0        0        0        1       39       17     7.855       31     31.3    2.461   -9.900     0.97    0.000    0.000       11        9     2040  Maize_Short_Soroca_22May_Optimum_85_MOHC.PRM
  Tot(61)       22        5     2041     51.0    795.4   1721.1   494.00      0.0     51.0      0.0      0.0      0.0     90.3       17    156.6    156.6       67     0.000     0.000     0.000     0.000       84        0        0        0        3       35       21     7.328       29      5.9    0.433   -9.900     0.18    0.000    0.000       11        9     2041  Maize_Short_Soroca_22May_Optimum_85_MOHC.PRM
  Tot(62)       22        5     2042    151.0    639.7   1541.3   499.00      0.0    132.2     18.8     21.9      0.0    121.0       34    196.3    196.3       74     0.000     0.000     0.000     0.000       94        0        0        0        1       22       20    11.323       46     30.7    3.477   -9.900     1.13    0.000    0.000       11        9     2042  Maize_Short_Soroca_22May_Optimum_85_MOHC.PRM
  Tot(63)       22        5     2043     49.7    836.3   1793.4   504.00      0.0     49.6      0.1      0.0      0.0     67.5       10    142.1    142.1       78     0.000     0.000     0.000     0.000       92        0        0        0        1       42       16     6.096       24     25.4    1.547   -9.900     0.78    0.000    0.000       11        9     2043  Maize_Short_Soroca_22May_Optimum_85_MOHC.PRM
  Tot(64)       22        5     2044    113.8    666.9   1674.8   508.00      0.0    113.7      0.1      0.0      0.0    136.8       34    179.1    179.1       75     0.000     0.000     0.000     0.000       90        0        0        0        1       29       19    10.016       40     27.3    2.730   -9.900     0.89    0.000    0.000       11        9     2044  Maize_Short_Soroca_22May_Optimum_85_MOHC.PRM
  Tot(65)       22        5     2045    180.7    606.6   1500.5   513.00      0.0    171.7      9.0      4.8      0.0    137.5       49    221.5    220.4       74     0.000     0.000     0.000     0.000      107        0        0        0        3       23       16    13.716       56     40.1    5.495   -9.900     1.53    0.000    0.000       11        9     2045  Maize_Short_Soroca_22May_Optimum_85_MOHC.PRM
  Tot(66)       22        5     2046    113.3    674.6   1646.3   519.00      0.0    111.4      1.9      1.3      0.0    129.7       32    181.8    182.9       72     0.000     0.000     0.000     0.000       89        0        0        0        1       29       20     9.599       39     25.8    2.477   -9.900     0.81    0.000    0.000       11        9     2046  Maize_Short_Soroca_22May_Optimum_85_MOHC.PRM
  Tot(67)       22        5     2047    107.8    778.4   1774.3   524.00      0.0    101.9      5.9      5.4      0.0    122.9       21    158.2    158.0       78     0.000     0.000     0.000     0.000      107        0        0        0        1       41       16     7.415       30     20.2    1.500   -9.900     0.53    0.000    0.000       11        9     2047  Maize_Short_Soroca_22May_Optimum_85_MOHC.PRM
  Tot(68)       22        5     2048     57.8    664.2   1703.1   529.00      0.0     56.4      1.4      1.0      0.0     89.3       22    166.4    166.6       71     0.000     0.000     0.000     0.000       87        0        0        0        1       31       21     9.119       36     23.7    2.165   -9.900     0.88    0.000    0.000       11        9     2048  Maize_Short_Soroca_22May_Optimum_85_MOHC.PRM
  Tot(69)       22        5     2049     82.3    754.7   1625.0   535.00      0.0     82.0      0.3      0.0      0.0    100.2       18    147.7    147.7       72     0.000     0.000     0.000     0.000       83        0        0        0        2       39       20     6.531       26      9.8    0.643   -9.900     0.28    0.000    0.000       11        9     2049  Maize_Short_Soroca_22May_Optimum_85_MOHC.PRM
  Tot(70)       22        5     2050    110.8    719.8   1785.8   541.00      0.0    106.6      4.2      1.5      0.0    126.8       29    193.5    193.5       73     0.000     0.000     0.000     0.000       94        0        0        0        0       24       20    11.278       45     23.4    2.642   -9.900     0.83    0.000    0.000       11        9     2050  Maize_Short_Soroca_22May_Optimum_85_MOHC.PRM
  Tot(71)       22        5     2051    103.1    687.9   1591.4   546.00      0.0     98.7      4.4      3.8      0.0    103.1       28    198.2    198.2       71     0.000     0.000     0.000     0.000       89        0        0        0        2       27       21     9.937       40      5.3    0.528   -9.900     0.18    0.000    0.000       11        9     2051  Maize_Short_Soroca_22May_Optimum_85_MOHC.PRM
  Tot(72)       22        5     2052     81.1    693.1   1628.4   552.00      0.0     77.6      3.5      5.2      0.0    106.9       24    157.9    157.9       74     0.000     0.000     0.000     0.000       86        0        0        0        1       35       20     8.023       32     23.0    1.845   -9.900     0.71    0.000    0.000       11        9     2052  Maize_Short_Soroca_22May_Optimum_85_MOHC.PRM
  Tot(73)       22        5     2053     98.7    655.1   1665.2   558.00      0.0     98.7      0.0      0.1      0.0    118.9       33    184.7    184.7       72     0.000     0.000     0.000     0.000       90        0        0        0        1       25       21    10.616       42     27.0    2.868   -9.900     0.98    0.000    0.000       11        9     2053  Maize_Short_Soroca_22May_Optimum_85_MOHC.PRM
  Tot(74)       22        5     2054    162.6    639.0   1673.8   564.00      0.0    148.8     13.8     39.6      0.0    128.9       37    179.5    179.5       70     0.000     0.000     0.000     0.000       88        0        0        0        1       28       21     9.492       38     24.7    2.340   -9.900     0.79    0.000    0.000       11        9     2054  Maize_Short_Soroca_22May_Optimum_85_MOHC.PRM
  Tot(75)       22        5     2055     38.1    739.9   1714.8   571.00      0.0     37.8      0.3      0.9      0.0     75.7       14    151.5    151.5       76     0.000     0.000     0.000     0.000       86        0        0        0        1       38       18     7.265       29     22.1    1.606   -9.900     0.73    0.000    0.000       11        9     2055  Maize_Short_Soroca_22May_Optimum_85_MOHC.PRM
  Tot(76)       22        5     2056    109.8    626.0   1584.0   577.00      0.0    107.8      2.0      0.0      0.0    113.9       36    197.5    197.5       73     0.000     0.000     0.000     0.000       93        0        0        0        2       20       20    11.552       46     24.3    2.808   -9.900     0.92    0.000    0.000       11        9     2056  Maize_Short_Soroca_22May_Optimum_85_MOHC.PRM
  Tot(77)       22        5     2057    264.7    577.0   1575.3   583.00      0.0    245.4     19.3     44.3      0.0    160.5       67    236.0    236.0       78     0.000     0.000     0.000     0.000      104        0        0        0        3        8       19    15.409       62     39.4    6.066   -9.900     1.55    0.000    0.000       11        9     2057  Maize_Short_Soroca_22May_Optimum_85_MOHC.PRM
  Tot(78)       22        5     2058     84.3    789.0   1783.2   590.00      0.0     80.6      3.7      7.1      0.0    102.3       19    165.1    165.1       72     0.000     0.000     0.000     0.000       84        0        0        0        2       35       20     7.805       31     20.8    1.625   -9.900     0.61    0.000    0.000       11        9     2058  Maize_Short_Soroca_22May_Optimum_85_MOHC.PRM
  Tot(79)       22        5     2059    168.0    630.3   1669.0   597.00      0.0    161.4      6.6     11.5      0.0    141.9       47    223.9    223.6       72     0.000     0.000     0.000     0.000      107        0        0        0        1       21       22    13.908       55     39.7    5.518   -9.900     1.51    0.000    0.000       11        9     2059  Maize_Short_Soroca_22May_Optimum_85_MOHC.PRM
  Tot(80)       22        5     2060     98.0    803.9   1848.8   604.00      0.0     98.0      0.0      0.0      0.0    125.9       22    162.0    162.3       73     0.000     0.000     0.000     0.000       86        0        0        0        1       36       20     7.488       30     22.9    1.716   -9.900     0.62    0.000    0.000       11        9     2060  Maize_Short_Soroca_22May_Optimum_85_MOHC.PRM
  Tot(81)       22        5     2061     36.4    772.9   1774.2   611.00      0.0     36.4      0.0      0.0      0.0     76.9       14    149.0    149.0       72     0.000     0.000     0.000     0.000       84        0        0        0        1       38       20     6.901       27      7.9    0.546   -9.900     0.24    0.000    0.000       11        9     2061  Maize_Short_Soroca_22May_Optimum_85_MOHC.PRM
  Tot(82)       22        5     2062     82.3    784.3   1855.2   618.00      0.0     82.3      0.0      0.0      0.0    112.7       22    163.6    163.6       70     0.000     0.000     0.000     0.000       82        0        0        0        0       34       21     7.627       30     19.2    1.467   -9.900     0.55    0.000    0.000       11        9     2062  Maize_Short_Soroca_22May_Optimum_85_MOHC.PRM
  Tot(83)       22        5     2063    138.0    686.8   1753.8   625.00      0.0    125.4     12.6     34.0      0.0    116.1       31    181.3    181.3       69     0.000     0.000     0.000     0.000       89        0        0        0        1       26       21    10.255       41     21.3    2.182   -9.900     0.75    0.000    0.000       11        9     2063  Maize_Short_Soroca_22May_Optimum_85_MOHC.PRM
  Tot(84)       22        5     2064    123.3    678.9   1861.2   632.00      0.0    123.0      0.3      0.0      0.0    135.2       32    181.8    181.8       77     0.000     0.000     0.000     0.000      107        0        0        0        0       30       29    10.546       42     30.3    3.197   -9.900     1.01    0.000    0.000       11        9     2064  Maize_Short_Soroca_22May_Optimum_85_MOHC.PRM
  Tot(85)       22        5     2065     60.5    690.8   1741.9   639.00      0.0     60.5      0.0      0.0      0.0     85.1       20    189.4    189.4       75     0.000     0.000     0.000     0.000       97        0        0        0        0       29       19    11.370       45     33.8    3.841   -9.900     1.41    0.000    0.000       11        9     2065  Maize_Short_Soroca_22May_Optimum_85_MOHC.PRM
  Tot(86)       22        5     2066    131.2    679.8   1717.6   647.00      0.0    128.0      3.2      0.0      0.0    135.7       32    181.7    181.4       73     0.000     0.000     0.000     0.000      107        0        0        0        1       30       17    10.435       42     32.5    3.388   -9.900     1.07    0.000    0.000       11        9     2066  Maize_Short_Soroca_22May_Optimum_85_MOHC.PRM
  Tot(87)       22        5     2067    133.5    777.3   1881.5   654.00      0.0    127.6      5.9      5.0      0.0    142.2       29    183.0    183.3       72     0.000     0.000     0.000     0.000       88        0        0        0        0       30       20     9.271       37     15.1    1.402   -9.900     0.43    0.000    0.000       11        9     2067  Maize_Short_Soroca_22May_Optimum_85_MOHC.PRM
  Tot(88)       22        5     2068    139.3    625.8   1702.7   662.00      0.0    137.7      1.6      0.0      0.0     94.6       34    267.3    267.1       80     0.000     0.000     0.000     0.000      107        0        0        0        0        7       16    17.952       71     39.1    7.021   -9.900     1.94    0.000    0.000       11        9     2068  Maize_Short_Soroca_22May_Optimum_85_MOHC.PRM
  Tot(89)       22        5     2069    161.9    694.6   1815.2   669.00      0.0    144.3     17.6     25.8      0.0    104.2       31    233.7    233.9       74     0.000     0.000     0.000     0.000       99        0        0        0        0       13       20    13.465       53     13.0    1.757   -9.900     0.52    0.000    0.000       11        9     2069  Maize_Short_Soroca_22May_Optimum_85_MOHC.PRM
  Tot(90)       22        5     2070     98.9    703.0   1728.3   677.00      0.0     95.1      3.8     11.1      0.0     89.1       26    208.8    208.8       70     0.000     0.000     0.000     0.000       92        0        0        0        1       19       22    11.413       45     21.7    2.476   -9.900     0.84    0.000    0.000       11        9     2070  Maize_Short_Soroca_22May_Optimum_85_MOHC.PRM
  Tot(91)       22        5     2071    161.0    689.7   1778.0   685.00      0.0    154.3      6.7      6.8      0.0    120.6       30    179.2    179.2       72     0.000     0.000     0.000     0.000       87        0        0        0        1       30       21     9.185       37     23.7    2.175   -9.900     0.76    0.000    0.000       11        9     2071  Maize_Short_Soroca_22May_Optimum_85_MOHC.PRM
  Tot(92)       22        5     2072    152.3    720.6   1810.5   693.00      0.0    142.8      9.5     13.9      0.0    145.7       38    188.3    188.3       70     0.000     0.000     0.000     0.000       88        0        0        0        0       25       22    10.057       40      9.2    0.928   -9.900     0.28    0.000    0.000       11        9     2072  Maize_Short_Soroca_22May_Optimum_85_MOHC.PRM
  Tot(93)       22        5     2073    137.2    673.1   1722.0   701.00      0.0    132.5      4.7      6.0      0.0    123.0       33    194.6    194.6       74     0.000     0.000     0.000     0.000       93        0        0        0        1       23       20    11.400       45     29.9    3.413   -9.900     1.11    0.000    0.000       11        9     2073  Maize_Short_Soroca_22May_Optimum_85_MOHC.PRM
  Tot(94)       22        5     2074    108.2    753.0   1811.6   709.00      0.0     98.9      9.3      0.0      0.0     86.9       22    229.0    229.0       74     0.000     0.000     0.000     0.000       96        0        0        0        0       20       20    11.774       47     17.5    2.060   -9.900     0.66    0.000    0.000       11        9     2074  Maize_Short_Soroca_22May_Optimum_85_MOHC.PRM
  Tot(95)       22        5     2075     93.5    763.4   1870.1   717.00      0.0     93.3      0.2      0.0      0.0    114.8       22    167.5    167.5       74     0.000     0.000     0.000     0.000       91        0        0        0        0       34       19     8.480       34     25.4    2.151   -9.900     0.80    0.000    0.000       11        9     2075  Maize_Short_Soroca_22May_Optimum_85_MOHC.PRM
  Tot(96)       22        5     2076     81.4    738.0   1825.9   725.00      0.0     81.0      0.4      0.5      0.0    114.4       24    162.8    162.8       73     0.000     0.000     0.000     0.000       86        0        0        0        2       34       20     8.224       33      4.7    0.383   -9.900     0.14    0.000    0.000       11        9     2076  Maize_Short_Soroca_22May_Optimum_85_MOHC.PRM
  Tot(97)       22        5     2077    107.3    688.4   1762.4   733.00      0.0    105.6      1.7      0.0      0.0    112.0       28    182.8    182.6       71     0.000     0.000     0.000     0.000      107        0        0        0        1       28       19    10.037       40     34.6    3.469   -9.900     1.18    0.000    0.000       11        9     2077  Maize_Short_Soroca_22May_Optimum_85_MOHC.PRM
  Tot(98)       22        5     2078    133.2    683.3   1794.8   742.00      0.0    131.4      1.8      6.0      0.0    117.3       38    230.0    230.1       73     0.000     0.000     0.000     0.000      101        0        0        0        1       13       21    14.129       56     31.0    4.376   -9.900     1.26    0.000    0.000       11        9     2078  Maize_Short_Soroca_22May_Optimum_85_MOHC.PRM
  Tot(99)       22        5     2079     80.0    730.0   1820.8   750.00      0.0     79.6      0.4      0.3      0.0    110.9       22    151.0    151.0       76     0.000     0.000     0.000     0.000       86        0        0        0        2       37       18     7.125       29     21.1    1.506   -9.900     0.59    0.000    0.000       11        9     2079  Maize_Short_Soroca_22May_Optimum_85_MOHC.PRM
 Tot(100)       22        5     2080    156.8    775.5   1907.7   758.00      0.0    151.9      4.9      4.3      0.0    148.8       28    209.6    209.3       80     0.000     0.000     0.000     0.000      107        0        0        0        0       40       17    11.251       45     34.0    3.822   -9.900     1.07    0.000    0.000       11        9     2080  Maize_Short_Soroca_22May_Optimum_85_MOHC.PRM
 Tot(101)       22        5     2081    128.1    741.4   1906.8   767.00      0.0    120.9      7.2      2.7      0.0    119.7       27    182.0    182.2       69     0.000     0.000     0.000     0.000       92        0        0        0        0       25       20    10.158       41      8.9    0.909   -9.900     0.31    0.000    0.000       11        9     2081  Maize_Short_Soroca_22May_Optimum_85_MOHC.PRM
 Tot(102)       22        5     2082     73.9    804.9   1980.3   775.00      0.0     73.4      0.5      0.0      0.0     83.4       18    190.0    190.0       70     0.000     0.000     0.000     0.000       89        0        0        0        1       28       21     9.337       38      1.1    0.105   -9.900     0.04    0.000    0.000       11        9     2082  Maize_Short_Soroca_22May_Optimum_85_MOHC.PRM
 Tot(103)       22        5     2083     70.2    762.0   1846.7   784.00      0.0     69.9      0.3      0.0      0.0    103.1       22    162.2    162.2       70     0.000     0.000     0.000     0.000       84        0        0        0        1       33       21     8.080       33      6.0    0.487   -9.900     0.19    0.000    0.000       11        9     2083  Maize_Short_Soroca_22May_Optimum_85_MOHC.PRM
 Tot(104)       22        5     2084    121.0    691.4   1805.6   792.00      0.0     88.0     33.0     57.2      0.0     66.2       16    166.6    166.6       72     0.000     0.000     0.000     0.000       89        0        0        0        1       31       20     9.317       38      4.0    0.371   -9.900     0.16    0.000    0.000       11        9     2084  Maize_Short_Soroca_22May_Optimum_85_MOHC.PRM
 Tot(105)       22        5     2085     81.9    778.1   1975.4   801.00      0.0     80.6      1.3      2.1      0.0    113.5       21    164.7    164.7       75     0.000     0.000     0.000     0.000       91        0        0        0        0       35       18     8.542       35      2.3    0.197   -9.900     0.07    0.000    0.000       11        9     2085  Maize_Short_Soroca_22May_Optimum_85_MOHC.PRM
 Tot(106)       22        5     2086    103.8    710.5   1845.7   810.00      0.0    103.6      0.2      0.0      0.0    116.5       30    203.3    203.3       72     0.000     0.000     0.000     0.000      103        0        0        0        1       30       23    11.352       46     35.3    4.009   -9.900     1.26    0.000    0.000       11        9     2086  Maize_Short_Soroca_22May_Optimum_85_MOHC.PRM
 Tot(107)       22        5     2087     19.6    874.1   1995.4   818.00      0.0     19.6      0.0      0.0      0.0     66.9        9    145.5    145.5       81     0.000     0.000     0.000     0.000       97        0        0        0        0       42       15     6.733       27     33.5    2.254   -9.900     1.08    0.000    0.000       11        9     2087  Maize_Short_Soroca_22May_Optimum_85_MOHC.PRM
 Tot(108)       22        5     2088     19.3    863.5   1928.5   827.00      0.0     19.3      0.0      0.0      0.0     64.4        9    140.7    140.7       81     0.000     0.000     0.000     0.000       96        0        0        0        0       43       15     6.120       25     11.1    0.680   -9.900     0.33    0.000    0.000       11        9     2088  Maize_Short_Soroca_22May_Optimum_85_MOHC.PRM
 Tot(109)       22        5     2089     58.2    842.2   1968.4   836.00      0.0     58.1      0.1      0.0      0.0     94.3       16    155.6    155.6       73     0.000     0.000     0.000     0.000       85        0        0        0        0       37       20     7.013       29      5.8    0.405   -9.900     0.17    0.000    0.000       11        9     2089  Maize_Short_Soroca_22May_Optimum_85_MOHC.PRM
 Tot(110)       22        5     2090    225.9    750.6   1879.0   845.00      0.0    180.5     45.4     70.2      0.0    136.3       32    175.5    175.5       68     0.000     0.000     0.000     0.000       86        0        0        0        0       29       22     8.967       37      4.9    0.437   -9.900     0.14    0.000    0.000       11        9     2090  Maize_Short_Soroca_22May_Optimum_85_MOHC.PRM
 Tot(111)       22        5     2091     48.5    913.1   2037.1   854.00      0.0     48.5      0.0      0.0      0.0     83.1       12    142.4    142.4       75     0.000     0.000     0.000     0.000       84        0        0        0        0       41       18     5.961       24      8.1    0.484   -9.900     0.22    0.000    0.000       11        9     2091  Maize_Short_Soroca_22May_Optimum_85_MOHC.PRM
 Tot(112)       22        5     2092     13.0    896.7   1985.0   863.00      0.0     13.0      0.0      0.0      0.0     58.4        8    140.2    140.2       77     0.000     0.000     0.000     0.000       90        0        0        0        0       42       16     5.994       25      7.1    0.426   -9.900     0.22    0.000    0.000       11        9     2092  Maize_Short_Soroca_22May_Optimum_85_MOHC.PRM
 Tot(113)       22        5     2093    110.9    850.8   2010.8   872.00      0.0    109.1      1.8      0.0      0.0     99.3       19    201.1    201.1       71     0.000     0.000     0.000     0.000       93        0        0        0        0       27       21     9.510       39      1.0    0.095   -9.900     0.03    0.000    0.000       11        9     2093  Maize_Short_Soroca_22May_Optimum_85_MOHC.PRM
 Tot(114)       22        5     2094     49.9    829.0   1988.2   881.00      0.0     49.9      0.0      0.0      0.0     93.1       16    154.0    154.0       75     0.000     0.000     0.000     0.000       90        0        0        0        0       37       18     7.667       32     27.1    2.076   -9.900     0.85    0.000    0.000       11        9     2094  Maize_Short_Soroca_22May_Optimum_85_MOHC.PRM
 Tot(115)       22        5     2095     88.0    862.3   1984.5   890.00      0.0     83.4      4.6      0.0      0.0    103.6       15    142.4    142.4       78     0.000     0.000     0.000     0.000       89        0        0        0        0       42       17     6.259       26      4.6    0.288   -9.900     0.13    0.000    0.000       11        9     2095  Maize_Short_Soroca_22May_Optimum_85_MOHC.PRM
 Tot(116)       22        5     2096    169.5    749.7   1967.1   899.00      0.0    114.5     55.0     43.8      0.0    103.4       23    170.3    170.3       72     0.000     0.000     0.000     0.000       89        0        0        0        0       29       20     9.472       39     16.1    1.529   -9.900     0.56    0.000    0.000       11        9     2096  Maize_Short_Soroca_22May_Optimum_85_MOHC.PRM
 Tot(117)       22        5     2097     53.0    786.7   1908.6   908.00      0.0     53.0      0.0      0.0      0.0     94.9       16    151.5    151.5       79     0.000     0.000     0.000     0.000       96        0        0        0        0       39       16     7.427       31     20.3    1.505   -9.900     0.62    0.000    0.000       11        9     2097  Maize_Short_Soroca_22May_Optimum_85_MOHC.PRM
 Tot(118)       22        5     2098     77.0    790.3   1974.3   917.00      0.0     75.4      1.6      0.0      0.0    105.0       21    163.2    163.2       70     0.000     0.000     0.000     0.000       85        0        0        0        0       33       20     7.643       32      1.6    0.123   -9.900     0.05    0.000    0.000       11        9     2098  Maize_Short_Soroca_22May_Optimum_85_MOHC.PRM
 Tot(119)       22        5     2099    201.6    639.0   1797.5   927.00      0.0    173.2     28.4      0.0      0.0     91.6       37    294.5    293.3       85     0.000     0.000     0.000     0.000      107        0        0        0        1        4       11    19.224       80     39.5    7.592   -9.900     1.97    0.000    0.000       11        9     2099  Maize_Short_Soroca_22May_Optimum_85_MOHC.PRM
