AquaCrop 7.0 (August 2022) - Output created on (date) : 23-11-2022   at (time) : 12:18:42

    RunNr     Day1   Month1    Year1     Rain      ETo       GD     CO2      Irri   Infilt   Runoff    Drain   Upflow        E     E/Ex       Tr      TrW   Tr/Trx    SaltIn   SaltOut    SaltUp  SaltProf     Cycle   SaltStr  FertStr  WeedStr  TempStr   ExpStr   StoStr  BioMass  Brelative   HI    Y(dry)  Y(fresh)    WPet      Bin     Bout     DayN   MonthN    YearN
                                           mm       mm  degC.day    ppm        mm       mm       mm       mm       mm       mm        %       mm       mm        %    ton/ha    ton/ha    ton/ha    ton/ha      days       %        %        %        %        %        %    ton/ha        %       %    ton/ha   ton/ha    kg/m3   ton/ha   ton/ha
   Tot(1)        6        6     1981    323.6    420.3   1169.7   340.11      0.0    268.1     55.5     55.9      0.0    129.2       64    209.4    161.9      100     0.000     0.000     0.000     0.000      107        0       42       25       19        7        0    13.652       75     40.4    5.513   -9.900     1.63    0.000    0.000       26        9     1981  Maize_Short_Soroca_6June_NonOptimum_85_MOHC.PRM
   Tot(2)        6        6     1982    276.8    416.0   1171.0   341.22      0.0    237.3     39.5     48.6      0.0    148.1       82    232.7    181.3       97     0.000     0.000     0.000     0.000      107        0       42       25       12        3        3    15.472       72     40.2    6.214   -9.900     1.63    0.000    0.000       26        9     1982  Maize_Short_Soroca_6June_NonOptimum_85_MOHC.PRM
   Tot(3)        6        6     1983    213.6    428.2   1169.7   342.84      0.0    208.8      4.8      6.9      0.0    121.7       64    228.0    177.0      100     0.000     0.000     0.000     0.000      107        0       42       25       13        1        0    15.114       75     40.0    6.047   -9.900     1.73    0.000    0.000       26        9     1983  Maize_Short_Soroca_6June_NonOptimum_85_MOHC.PRM
   Tot(4)        6        6     1984    282.0    406.7   1061.7   344.40      0.0    268.3     13.7     12.2      0.0    154.8       87    216.6    166.7      100     0.000     0.000     0.000     0.000      107        0       42       25       20        1        0    14.959       76     40.1    5.996   -9.900     1.61    0.000    0.000       26        9     1984  Maize_Short_Soroca_6June_NonOptimum_85_MOHC.PRM
   Tot(5)        6        6     1985    357.2    428.1   1082.1   345.87      0.0    308.6     48.6     56.8      0.0    145.6       82    232.9    181.8      100     0.000     0.000     0.000     0.000      107        0       42       25       23        2        1    13.876       75     40.1    5.558   -9.900     1.47    0.000    0.000       26        9     1985  Maize_Short_Soroca_6June_NonOptimum_85_MOHC.PRM
   Tot(6)        6        6     1986    147.6    489.6   1212.2   347.19      0.0    146.7      0.9      0.0      0.0    114.5       49    234.2    182.3       96     0.000     0.000     0.000     0.000      107        0       42       25       17        9        5    13.337       69     40.4    5.383   -9.900     1.54    0.000    0.000       26        9     1986  Maize_Short_Soroca_6June_NonOptimum_85_MOHC.PRM
   Tot(7)        6        6     1987    211.9    451.8   1159.6   348.98      0.0    206.3      5.6      6.4      0.0    114.2       50    205.0    159.0      100     0.000     0.000     0.000     0.000      107        0       42       25       17        6        0    13.458       73     40.0    5.385   -9.900     1.69    0.000    0.000       26        9     1987  Maize_Short_Soroca_6June_NonOptimum_85_MOHC.PRM
   Tot(8)        6        6     1988    248.1    413.1   1202.7   351.45      0.0    238.8      9.3     15.2      0.0    134.4       71    218.9    170.8      100     0.000     0.000     0.000     0.000      107        0       42       25       16        3        0    14.566       75     40.2    5.854   -9.900     1.66    0.000    0.000       26        9     1988  Maize_Short_Soroca_6June_NonOptimum_85_MOHC.PRM
   Tot(9)        6        6     1989    414.3    403.4   1141.8   352.89      0.0    339.5     74.8     37.5      0.0    122.6       65    206.5    160.3      100     0.000     0.000     0.000     0.000      107        0       42       25       16        2        0    14.420       75     40.0    5.772   -9.900     1.75    0.000    0.000       26        9     1989  Maize_Short_Soroca_6June_NonOptimum_85_MOHC.PRM
  Tot(10)        6        6     1990    176.4    440.5   1094.6   354.16      0.0    167.9      8.5     13.1      0.0    123.5       60    210.7    165.4       98     0.000     0.000     0.000     0.000      107        0       42       25       20       12        2    12.780       71     40.6    5.189   -9.900     1.55    0.000    0.000       26        9     1990  Maize_Short_Soroca_6June_NonOptimum_85_MOHC.PRM
  Tot(11)        6        6     1991    371.0    403.5   1213.4   355.48      0.0    322.1     48.9     40.9      0.0    147.2       75    199.8    154.2      100     0.000     0.000     0.000     0.000      107        0       42       25       13        0        0    14.871       76     40.0    5.948   -9.900     1.71    0.000    0.000       26        9     1991  Maize_Short_Soroca_6June_NonOptimum_85_MOHC.PRM
  Tot(12)        6        6     1992    153.8    498.8   1261.7   356.27      0.0    153.4      0.4      0.0      0.0    126.9       53    219.7    174.7       85     0.000     0.000     0.000     0.000      107        0       42       25       15       19        8    11.527       59     40.6    4.677   -9.900     1.35    0.000    0.000       26        9     1992  Maize_Short_Soroca_6June_NonOptimum_85_MOHC.PRM
  Tot(13)        6        6     1993    276.6    430.4   1056.4   356.95      0.0    234.0     42.6      0.0      0.0    116.0       57    211.2    163.3      100     0.000     0.000     0.000     0.000      107        0       42       25       23        5        0    13.556       74     40.3    5.458   -9.900     1.67    0.000    0.000       26        9     1993  Maize_Short_Soroca_6June_NonOptimum_85_MOHC.PRM
  Tot(14)        6        6     1994    213.3    492.9   1309.0   358.63      0.0    170.1     43.2     19.9      0.0     89.2       35    245.3    193.4       95     0.000     0.000     0.000     0.000      107        0       42       25        7       23        3    14.550       65     40.9    5.953   -9.900     1.78    0.000    0.000       26        9     1994  Maize_Short_Soroca_6June_NonOptimum_85_MOHC.PRM
  Tot(15)        6        6     1995    377.3    450.2   1246.1   360.62      0.0    331.3     46.0     26.1      0.0    119.3       55    236.5    184.6      100     0.000     0.000     0.000     0.000      107        0       42       25       13        2        0    15.025       75     40.1    6.022   -9.900     1.69    0.000    0.000       26        9     1995  Maize_Short_Soroca_6June_NonOptimum_85_MOHC.PRM
  Tot(16)        6        6     1996    392.3    424.9   1100.1   362.37      0.0    340.3     52.0     22.4      0.0    133.1       61    197.5    153.4      100     0.000     0.000     0.000     0.000      107        0       42       25       24        2        0    12.915       75     40.1    5.180   -9.900     1.57    0.000    0.000       26        9     1996  Maize_Short_Soroca_6June_NonOptimum_85_MOHC.PRM
  Tot(17)        6        6     1997    318.9    401.6   1109.9   363.47      0.0    300.0     18.9     23.7      0.0    142.6       74    190.5    147.8      100     0.000     0.000     0.000     0.000      107        0       42       25       19        1        0    13.839       75     40.0    5.540   -9.900     1.66    0.000    0.000       26        9     1997  Maize_Short_Soroca_6June_NonOptimum_85_MOHC.PRM
  Tot(18)        6        6     1998    287.9    420.7   1171.6   366.50      0.0    270.1     17.8     35.9      0.0    126.6       70    221.8    171.5      100     0.000     0.000     0.000     0.000      107        0       42       25       20        2        0    13.914       75     40.1    5.582   -9.900     1.60    0.000    0.000       26        9     1998  Maize_Short_Soroca_6June_NonOptimum_85_MOHC.PRM
  Tot(19)        6        6     1999    165.9    483.7   1378.8   368.14      0.0    165.9      0.0      0.0      0.0    116.2       46    239.8    187.0       99     0.000     0.000     0.000     0.000      107        0       42       25        7       13        1    15.460       72     40.5    6.269   -9.900     1.76    0.000    0.000       26        9     1999  Maize_Short_Soroca_6June_NonOptimum_85_MOHC.PRM
  Tot(20)        6        6     2000    297.3    455.6   1161.2   369.41      0.0    282.8     14.5     20.8      0.0    148.9       68    232.4    181.5      100     0.000     0.000     0.000     0.000      107        0       42       25       20        2        0    14.446       75     40.2    5.805   -9.900     1.52    0.000    0.000       26        9     2000  Maize_Short_Soroca_6June_NonOptimum_85_MOHC.PRM
  Tot(21)        6        6     2001    265.2    462.1   1291.3   371.07      0.0    251.0     14.2      4.4      0.0    148.7       72    243.1    189.8       95     0.000     0.000     0.000     0.000      107        0       42       25       12        9        3    14.378       69     40.5    5.829   -9.900     1.49    0.000    0.000       26        9     2001  Maize_Short_Soroca_6June_NonOptimum_85_MOHC.PRM
  Tot(22)        6        6     2002    389.7    467.2   1321.1   373.16      0.0    352.6     37.1     42.5      0.0    111.1       45    233.9    182.1      100     0.000     0.000     0.000     0.000      107        0       42       25       11        4        0    15.029       72     40.0    6.012   -9.900     1.74    0.000    0.000       26        9     2002  Maize_Short_Soroca_6June_NonOptimum_85_MOHC.PRM
  Tot(23)        6        6     2003    334.8    489.0   1220.9   375.80      0.0    285.0     49.8     63.3      0.0    133.7       57    245.9    190.9      100     0.000     0.000     0.000     0.000      107        0       42       25       15        2        0    14.754       74     40.0    5.907   -9.900     1.56    0.000    0.000       26        9     2003  Maize_Short_Soroca_6June_NonOptimum_85_MOHC.PRM
  Tot(24)        6        6     2004    263.1    450.3   1178.8   377.49      0.0    242.3     20.8      9.2      0.0     93.0       39    210.9    164.2      100     0.000     0.000     0.000     0.000      107        0       42       25       15        4        0    14.536       73     40.0    5.815   -9.900     1.91    0.000    0.000       26        9     2004  Maize_Short_Soroca_6June_NonOptimum_85_MOHC.PRM
  Tot(25)        6        6     2005    181.1    447.2   1239.3   379.80      0.0    175.6      5.5      8.2      0.0    113.8       56    245.0    189.7       99     0.000     0.000     0.000     0.000      107        0       42       25        9        6        1    16.028       73     40.2    6.443   -9.900     1.80    0.000    0.000       26        9     2005  Maize_Short_Soroca_6June_NonOptimum_85_MOHC.PRM
  Tot(26)        6        6     2006    220.5    483.0   1237.4   381.90      0.0    215.5      5.0      0.0      0.0    107.4       46    249.8    193.9      100     0.000     0.000     0.000     0.000      107        0       42       25       11        7        0    15.455       73     40.2    6.214   -9.900     1.74    0.000    0.000       26        9     2006  Maize_Short_Soroca_6June_NonOptimum_85_MOHC.PRM
  Tot(27)        6        6     2007    185.3    532.1   1314.3   383.77      0.0    181.4      3.9      0.0      0.0    105.3       34    226.3    180.0      100     0.000     0.000     0.000     0.000      107        0       42       25       13       17        0    13.562       68     40.3    5.469   -9.900     1.65    0.000    0.000       26        9     2007  Maize_Short_Soroca_6June_NonOptimum_85_MOHC.PRM
  Tot(28)        6        6     2008    400.0    488.6   1252.2   385.59      0.0    330.7     69.3     52.0      0.0    121.0       50    256.1    199.7      100     0.000     0.000     0.000     0.000      107        0       42       25       15        3        0    14.463       74     40.1    5.794   -9.900     1.54    0.000    0.000       26        9     2008  Maize_Short_Soroca_6June_NonOptimum_85_MOHC.PRM
  Tot(29)        6        6     2009    155.7    534.4   1353.0   387.37      0.0    154.7      1.0      0.0      0.0    147.7       53    224.3    176.7       86     0.000     0.000     0.000     0.000      107        0       42       25        8       15       15    12.455       56     40.0    4.984   -9.900     1.34    0.000    0.000       26        9     2009  Maize_Short_Soroca_6June_NonOptimum_85_MOHC.PRM
  Tot(30)        6        6     2010    312.2    466.6   1338.8   389.85      0.0    287.9     24.3     41.7      0.0    138.3       65    249.8    192.8       99     0.000     0.000     0.000     0.000      107        0       42       25       13        6        1    15.023       74     40.4    6.068   -9.900     1.56    0.000    0.000       26        9     2010  Maize_Short_Soroca_6June_NonOptimum_85_MOHC.PRM
  Tot(31)        6        6     2011    175.5    501.1   1309.7   391.63      0.0    172.0      3.5      3.5      0.0    141.3       61    244.8    192.0       89     0.000     0.000     0.000     0.000      107        0       42       25        8        5       12    14.120       62     39.9    5.628   -9.900     1.46    0.000    0.000       26        9     2011  Maize_Short_Soroca_6June_NonOptimum_85_MOHC.PRM
  Tot(32)        6        6     2012    107.4    583.0   1401.8   393.82      0.0    105.8      1.6      3.9      0.0    104.2       29    211.3    169.0       87     0.000     0.000     0.000     0.000      107        0       42       25        7       30       13    11.070       50     40.4    4.475   -9.900     1.42    0.000    0.000       26        9     2012  Maize_Short_Soroca_6June_NonOptimum_85_MOHC.PRM
  Tot(33)        6        6     2013    249.3    473.0   1269.4   396.48      0.0    231.5     17.8      0.0      0.0    130.3       53    203.7    160.1       91     0.000     0.000     0.000     0.000      107        0       42       25       13       20        4    12.786       63     40.8    5.219   -9.900     1.56    0.000    0.000       26        9     2013  Maize_Short_Soroca_6June_NonOptimum_85_MOHC.PRM
  Tot(34)        6        6     2014    237.1    504.5   1302.8   398.55      0.0    217.1     20.0     22.3      0.0    105.9       46    262.6    204.1       95     0.000     0.000     0.000     0.000      107        0       42       25       11        6        5    14.973       69     40.2    6.012   -9.900     1.63    0.000    0.000       26        9     2014  Maize_Short_Soroca_6June_NonOptimum_85_MOHC.PRM
  Tot(35)        6        6     2015     75.3    590.7   1405.3   402.00      0.0     75.3      0.0      0.0      0.0     96.2       25    171.2    137.6       80     0.000     0.000     0.000     0.000      102        0       42       25        7       30       17     8.367       37     39.5    3.303   -9.900     1.26    0.000    0.000       26        9     2015  Maize_Short_Soroca_6June_NonOptimum_85_MOHC.PRM
  Tot(36)        6        6     2016    196.8    529.3   1373.3   404.00      0.0    193.9      2.9      1.7      0.0    155.3       59    244.0    191.8       89     0.000     0.000     0.000     0.000      107        0       42       25        9       17       12    13.390       61     40.2    5.389   -9.900     1.35    0.000    0.000       26        9     2016  Maize_Short_Soroca_6June_NonOptimum_85_MOHC.PRM
  Tot(37)        6        6     2017    229.7    532.7   1347.1   407.00      0.0    222.5      7.2      1.9      0.0    147.9       56    239.4    187.2       88     0.000     0.000     0.000     0.000      107        0       42       25        8       13        9    13.453       60     40.2    5.410   -9.900     1.40    0.000    0.000       26        9     2017  Maize_Short_Soroca_6June_NonOptimum_85_MOHC.PRM
  Tot(38)        6        6     2018    252.3    476.6   1408.2   410.00      0.0    239.0     13.3     15.2      0.0    141.3       69    276.6    214.7       98     0.000     0.000     0.000     0.000      107        0       42       25        7        1        2    16.813       73     40.0    6.732   -9.900     1.61    0.000    0.000       26        9     2018  Maize_Short_Soroca_6June_NonOptimum_85_MOHC.PRM
  Tot(39)        6        6     2019    166.3    540.1   1376.3   413.00      0.0    163.1      3.2      4.4      0.0    138.9       51    217.0    169.8       81     0.000     0.000     0.000     0.000      107        0       42       25        9       13       17    12.046       55     39.7    4.788   -9.900     1.35    0.000    0.000       26        9     2019  Maize_Short_Soroca_6June_NonOptimum_85_MOHC.PRM
  Tot(40)        6        6     2020    143.9    636.7   1512.7   416.00      0.0    136.4      7.5      1.6      0.0    137.5       40    201.2    159.2       74     0.000     0.000     0.000     0.000       91        0       42       25        3       23       21     8.419       35     27.7    2.329   -9.900     0.72    0.000    0.000       26        9     2020  Maize_Short_Soroca_6June_NonOptimum_85_MOHC.PRM
  Tot(41)        6        6     2021     62.5    711.1   1587.8   419.00      0.0     62.4      0.1      0.0      0.0     93.2       19    176.1    142.6       77     0.000     0.000     0.000     0.000       92        0       42       25        1       33       18     7.279       30     29.1    2.115   -9.900     0.79    0.000    0.000       26        9     2021  Maize_Short_Soroca_6June_NonOptimum_85_MOHC.PRM
  Tot(42)        6        6     2022     57.1    644.5   1538.2   422.00      0.0     57.0      0.1      0.0      0.0     86.8       21    174.3    139.8       76     0.000     0.000     0.000     0.000       91        0       42       25        2       31       19     7.440       32     28.0    2.084   -9.900     0.81    0.000    0.000       26        9     2022  Maize_Short_Soroca_6June_NonOptimum_85_MOHC.PRM
  Tot(43)        6        6     2023    141.7    605.9   1463.6   425.00      0.0    140.5      1.2      0.0      0.0    141.9       37    190.7    153.9       81     0.000     0.000     0.000     0.000      107        0       42       25        6       33       11     9.668       43     40.6    3.927   -9.900     1.18    0.000    0.000       26        9     2023  Maize_Short_Soroca_6June_NonOptimum_85_MOHC.PRM
  Tot(44)        6        6     2024     43.0    682.4   1617.7   428.00      0.0     43.0      0.0      0.0      0.0     79.4       17    160.8    130.8       74     0.000     0.000     0.000     0.000       89        0       42       25        1       34       19     6.835       28     26.4    1.802   -9.900     0.79    0.000    0.000       26        9     2024  Maize_Short_Soroca_6June_NonOptimum_85_MOHC.PRM
  Tot(45)        6        6     2025    136.9    552.6   1352.0   431.00      0.0    133.8      3.1      0.0      0.0     96.1       32    238.7    189.0       92     0.000     0.000     0.000     0.000      107        0       42       25       10       25        6    13.123       61     40.3    5.291   -9.900     1.58    0.000    0.000       26        9     2025  Maize_Short_Soroca_6June_NonOptimum_85_MOHC.PRM
  Tot(46)        6        6     2026    168.2    612.0   1477.8   435.00      0.0    156.5     11.7      0.0      0.0    130.3       33    179.0    145.2       78     0.000     0.000     0.000     0.000      107        0       42       25       10       33       12     8.135       38     40.6    3.300   -9.900     1.07    0.000    0.000       26        9     2026  Maize_Short_Soroca_6June_NonOptimum_85_MOHC.PRM
  Tot(47)        6        6     2027    299.0    505.7   1401.3   438.00      0.0    275.6     23.4      0.0      0.0    139.7       57    246.7    191.7       93     0.000     0.000     0.000     0.000      107        0       42       25        7       13        4    15.001       67     40.6    6.088   -9.900     1.58    0.000    0.000       26        9     2027  Maize_Short_Soroca_6June_NonOptimum_85_MOHC.PRM
  Tot(48)        6        6     2028    111.0    643.6   1574.0   442.00      0.0    102.9      8.1     18.4      0.0    113.8       27    162.7    133.3       74     0.000     0.000     0.000     0.000       87        0       42       25        0       35       19     6.593       27     24.0    1.582   -9.900     0.59    0.000    0.000       26        9     2028  Maize_Short_Soroca_6June_NonOptimum_85_MOHC.PRM
  Tot(49)        6        6     2029    107.2    578.9   1484.5   445.00      0.0    104.4      2.8      1.2      0.0    127.1       36    180.7    145.0       79     0.000     0.000     0.000     0.000       97        0       42       25        4       29       17     8.759       40     34.4    3.014   -9.900     0.99    0.000    0.000       26        9     2029  Maize_Short_Soroca_6June_NonOptimum_85_MOHC.PRM
  Tot(50)        6        6     2030    184.3    538.5   1396.6   449.00      0.0    172.2     12.1     13.7      0.0    144.6       53    206.9    163.4       79     0.000     0.000     0.000     0.000      107        0       42       25        9       20       12    11.440       51     40.3    4.610   -9.900     1.31    0.000    0.000       26        9     2030  Maize_Short_Soroca_6June_NonOptimum_85_MOHC.PRM
  Tot(51)        6        6     2031    109.9    671.5   1543.1   452.00      0.0    105.8      4.1      1.5      0.0     98.5       25    216.9    173.2       77     0.000     0.000     0.000     0.000      102        0       42       25        5       23       20     9.261       42     38.6    3.579   -9.900     1.14    0.000    0.000       26        9     2031  Maize_Short_Soroca_6June_NonOptimum_85_MOHC.PRM
  Tot(52)        6        6     2032    137.7    553.1   1466.8   456.00      0.0    137.2      0.5      0.0      0.0     88.0       29    251.8    196.0       96     0.000     0.000     0.000     0.000      107        0       42       25        5       10        4    15.471       67     37.9    5.868   -9.900     1.73    0.000    0.000       26        9     2032  Maize_Short_Soroca_6June_NonOptimum_85_MOHC.PRM
  Tot(53)        6        6     2033    155.7    615.8   1582.6   460.00      0.0    154.1      1.6      0.6      0.0    106.0       31    255.0    201.4       87     0.000     0.000     0.000     0.000      107        0       42       25        4       17        9    13.368       56     40.3    5.386   -9.900     1.49    0.000    0.000       26        9     2033  Maize_Short_Soroca_6June_NonOptimum_85_MOHC.PRM
  Tot(54)        6        6     2034     35.7    763.8   1698.2   464.00      0.0     35.7      0.0      0.0      0.0     75.8       12    147.1    122.5       81     0.000     0.000     0.000     0.000       93        0       42       25        0       42       15     5.567       24     30.4    1.693   -9.900     0.82    0.000    0.000       26        9     2034  Maize_Short_Soroca_6June_NonOptimum_85_MOHC.PRM
  Tot(55)        6        6     2035     68.4    675.7   1517.1   468.00      0.0     68.3      0.1      0.0      0.0     79.8       17    163.9    133.9       77     0.000     0.000     0.000     0.000       93        0       42       25        1       37       17     6.618       30     29.3    1.937   -9.900     0.81    0.000    0.000       26        9     2035  Maize_Short_Soroca_6June_NonOptimum_85_MOHC.PRM
  Tot(56)        6        6     2036    122.1    675.7   1685.8   472.00      0.0    113.8      8.3     13.9      0.0    120.9       28    180.8    144.9       75     0.000     0.000     0.000     0.000       90        0       42       25        0       30       19     7.586       31     27.0    2.047   -9.900     0.69    0.000    0.000       26        9     2036  Maize_Short_Soroca_6June_NonOptimum_85_MOHC.PRM
  Tot(57)        6        6     2037    134.5    530.4   1410.0   476.00      0.0    133.0      1.5      0.0      0.0    101.3       35    219.4    174.7       88     0.000     0.000     0.000     0.000      107        0       42       25        7       26        8    12.998       57     40.7    5.287   -9.900     1.65    0.000    0.000       26        9     2037  Maize_Short_Soroca_6June_NonOptimum_85_MOHC.PRM
  Tot(58)        6        6     2038    241.8    566.8   1597.2   481.00      0.0    197.5     44.3     45.1      0.0    149.0       51    206.6    163.5       77     0.000     0.000     0.000     0.000      107        0       42       25        2       22       21    10.563       43     40.0    4.226   -9.900     1.19    0.000    0.000       26        9     2038  Maize_Short_Soroca_6June_NonOptimum_85_MOHC.PRM
  Tot(59)        6        6     2039     39.4    717.8   1721.8   485.00      0.0     38.4      1.0      0.8      0.0     76.5       15    153.0    124.8       73     0.000     0.000     0.000     0.000       87        0       42       25        2       36       19     6.006       24     24.0    1.443   -9.900     0.64    0.000    0.000       26        9     2039  Maize_Short_Soroca_6June_NonOptimum_85_MOHC.PRM
  Tot(60)        6        6     2040     49.7    751.7   1710.9   489.00      0.0     49.7      0.0      0.0      0.0     89.8       16    163.7    134.3       80     0.000     0.000     0.000     0.000       98        0       42       25        0       35       16     7.347       30     35.2    2.586   -9.900     1.07    0.000    0.000       26        9     2040  Maize_Short_Soroca_6June_NonOptimum_85_MOHC.PRM
  Tot(61)        6        6     2041     34.3    779.0   1724.3   494.00      0.0     34.3      0.0      0.0      0.0     77.5       13    140.8    116.4       77     0.000     0.000     0.000     0.000       91        0       42       25        0       42       17     4.933       20     19.8    0.976   -9.900     0.45    0.000    0.000       26        9     2041  Maize_Short_Soroca_6June_NonOptimum_85_MOHC.PRM
  Tot(62)        6        6     2042     90.3    657.3   1603.8   499.00      0.0     85.1      5.2      9.9      0.0    103.5       24    171.2    137.8       78     0.000     0.000     0.000     0.000       95        0       42       25        1       32       18     7.798       32     32.2    2.511   -9.900     0.93    0.000    0.000       26        9     2042  Maize_Short_Soroca_6June_NonOptimum_85_MOHC.PRM
  Tot(63)        6        6     2043     94.6    788.1   1745.0   504.00      0.0     91.4      3.2      0.0      0.0     84.4       13    155.0    128.6       84     0.000     0.000     0.000     0.000      107        0       42       25        4       43        9     6.435       27     20.7    1.330   -9.900     0.56    0.000    0.000       26        9     2043  Maize_Short_Soroca_6June_NonOptimum_85_MOHC.PRM
  Tot(64)        6        6     2044     73.6    673.9   1688.7   508.00      0.0     73.5      0.1      0.0      0.0    103.9       23    169.4    137.2       78     0.000     0.000     0.000     0.000       93        0       42       25        1       33       18     7.718       31     30.2    2.330   -9.900     0.86    0.000    0.000       26        9     2044  Maize_Short_Soroca_6June_NonOptimum_85_MOHC.PRM
  Tot(65)        6        6     2045    153.3    605.4   1481.9   513.00      0.0    143.5      9.8      7.1      0.0    111.3       35    225.2    180.4       80     0.000     0.000     0.000     0.000      107        0       42       25        7       30       12    11.428       49     21.6    2.464   -9.900     0.73    0.000    0.000       26        9     2045  Maize_Short_Soroca_6June_NonOptimum_85_MOHC.PRM
  Tot(66)        6        6     2046    115.6    644.8   1585.4   519.00      0.0    114.7      0.9      0.0      0.0    126.4       29    167.2    135.9       78     0.000     0.000     0.000     0.000       95        0       42       25        3       36       17     7.304       32     31.4    2.293   -9.900     0.81    0.000    0.000       26        9     2046  Maize_Short_Soroca_6June_NonOptimum_85_MOHC.PRM
  Tot(67)        6        6     2047     60.3    747.8   1688.0   524.00      0.0     59.1      1.2      0.0      0.0     85.7       15    175.7    144.8       85     0.000     0.000     0.000     0.000      107        0       42       25        4       41       13     7.959       33     28.3    2.252   -9.900     0.86    0.000    0.000       26        9     2047  Maize_Short_Soroca_6June_NonOptimum_85_MOHC.PRM
  Tot(68)        6        6     2048     37.2    669.5   1708.2   529.00      0.0     37.2      0.0      0.0      0.0     75.8       16    153.4    125.4       76     0.000     0.000     0.000     0.000       91        0       42       25        1       37       17     6.426       26     27.2    1.750   -9.900     0.80    0.000    0.000       26        9     2048  Maize_Short_Soroca_6June_NonOptimum_85_MOHC.PRM
  Tot(69)        6        6     2049     72.0    740.2   1664.8   535.00      0.0     71.8      0.2      0.0      0.0     95.3       17    157.7    130.5       83     0.000     0.000     0.000     0.000      107        0       42       25        2       43       11     6.585       27     40.8    2.684   -9.900     1.06    0.000    0.000       26        9     2049  Maize_Short_Soroca_6June_NonOptimum_85_MOHC.PRM
  Tot(70)        6        6     2050    108.6    691.2   1771.0   541.00      0.0    104.5      4.1      3.1      0.0    128.0       29    172.8    138.9       73     0.000     0.000     0.000     0.000       89        0       42       25        0       30       20     7.662       30     25.9    1.981   -9.900     0.68    0.000    0.000       26        9     2050  Maize_Short_Soroca_6June_NonOptimum_85_MOHC.PRM
  Tot(71)        6        6     2051    139.8    680.2   1588.6   546.00      0.0    134.5      5.3      1.3      0.0    127.5       28    166.8    135.4       76     0.000     0.000     0.000     0.000       88        0       42       25        2       35       19     6.555       27     24.1    1.581   -9.900     0.57    0.000    0.000       26        9     2051  Maize_Short_Soroca_6June_NonOptimum_85_MOHC.PRM
  Tot(72)        6        6     2052     20.6    697.1   1604.9   552.00      0.0     20.6      0.0      0.0      0.0     62.3       12    157.1    129.1       82     0.000     0.000     0.000     0.000       97        0       42       25        1       39       16     6.986       29     33.4    2.335   -9.900     1.07    0.000    0.000       26        9     2052  Maize_Short_Soroca_6June_NonOptimum_85_MOHC.PRM
  Tot(73)        6        6     2053     81.3    650.2   1631.4   558.00      0.0     79.9      1.4      1.2      0.0    110.6       25    159.5    129.3       77     0.000     0.000     0.000     0.000       91        0       42       25        0       35       18     7.026       29     28.2    1.982   -9.900     0.76    0.000    0.000       26        9     2053  Maize_Short_Soroca_6June_NonOptimum_85_MOHC.PRM
  Tot(74)        6        6     2054    106.6    656.9   1706.1   564.00      0.0     99.5      7.1     11.7      0.0    101.5       22    158.9    129.6       78     0.000     0.000     0.000     0.000       97        0       42       25        1       37       17     6.885       27     34.5    2.372   -9.900     0.94    0.000    0.000       26        9     2054  Maize_Short_Soroca_6June_NonOptimum_85_MOHC.PRM
  Tot(75)        6        6     2055    102.3    716.6   1679.7   571.00      0.0     89.7     12.6      0.0      0.0     73.2       13    152.0    125.2       80     0.000     0.000     0.000     0.000       95        0       42       25        1       40       16     6.263       27     27.0    1.688   -9.900     0.79    0.000    0.000       26        9     2055  Maize_Short_Soroca_6June_NonOptimum_85_MOHC.PRM
  Tot(76)        6        6     2056    115.8    611.9   1546.3   577.00      0.0    112.7      3.1      4.5      0.0    121.0       31    167.5    135.3       78     0.000     0.000     0.000     0.000      107        0       42       25        2       34       30     7.445       31     28.2    2.103   -9.900     0.73    0.000    0.000       26        9     2056  Maize_Short_Soroca_6June_NonOptimum_85_MOHC.PRM
  Tot(77)        6        6     2057    260.9    554.7   1511.0   583.00      0.0    232.5     28.4     44.9      0.0    152.1       55    201.4    159.5       77     0.000     0.000     0.000     0.000      107        0       42       25        8       24       14    10.381       45     40.3    4.188   -9.900     1.18    0.000    0.000       26        9     2057  Maize_Short_Soroca_6June_NonOptimum_85_MOHC.PRM
  Tot(78)        6        6     2058     46.6    787.3   1771.8   590.00      0.0     46.3      0.3      0.0      0.0     81.3       14    152.5    125.7       77     0.000     0.000     0.000     0.000       88        0       42       25        0       40       18     5.742       23     17.4    0.997   -9.900     0.43    0.000    0.000       26        9     2058  Maize_Short_Soroca_6June_NonOptimum_85_MOHC.PRM
  Tot(79)        6        6     2059    112.7    627.5   1671.3   597.00      0.0    112.6      0.1      0.0      0.0    116.7       35    212.2    168.7       75     0.000     0.000     0.000     0.000      107        0       42       25        2       26       22    10.521       43     28.0    2.946   -9.900     0.90    0.000    0.000       26        9     2059  Maize_Short_Soroca_6June_NonOptimum_85_MOHC.PRM
  Tot(80)        6        6     2060     79.0    786.4   1846.8   604.00      0.0     78.9      0.1      0.0      0.0    106.8       17    154.2    127.4       82     0.000     0.000     0.000     0.000      100        0       42       25        1       41       15     6.325       25     36.6    2.313   -9.900     0.90    0.000    0.000       26        9     2060  Maize_Short_Soroca_6June_NonOptimum_85_MOHC.PRM
  Tot(81)        6        6     2061     32.3    783.2   1795.3   611.00      0.0     32.3      0.0      0.0      0.0     73.3       12    146.9    121.6       81     0.000     0.000     0.000     0.000       93        0       42       25        0       42       16     5.591       23     29.4    1.646   -9.900     0.77    0.000    0.000       26        9     2061  Maize_Short_Soroca_6June_NonOptimum_85_MOHC.PRM
  Tot(82)        6        6     2062     72.0    758.2   1801.6   618.00      0.0     72.0      0.0      0.0      0.0     97.2       16    149.0    123.2       80     0.000     0.000     0.000     0.000       93        0       42       25        0       42       16     5.687       23     29.4    1.672   -9.900     0.72    0.000    0.000       26        9     2062  Maize_Short_Soroca_6June_NonOptimum_85_MOHC.PRM
  Tot(83)        6        6     2063    136.6    677.3   1668.4   625.00      0.0    119.7     16.9      8.5      0.0     83.5       19    155.8    126.1       73     0.000     0.000     0.000     0.000       86        0       42       25        1       35       20     6.425       27     23.0    1.480   -9.900     0.65    0.000    0.000       26        9     2063  Maize_Short_Soroca_6June_NonOptimum_85_MOHC.PRM
  Tot(84)        6        6     2064    126.6    654.5   1783.1   632.00      0.0    126.4      0.2      0.0      0.0    111.2       28    204.1    164.1       81     0.000     0.000     0.000     0.000      107        0       42       25        4       30       14    10.758       45     24.4    2.630   -9.900     0.83    0.000    0.000       26        9     2064  Maize_Short_Soroca_6June_NonOptimum_85_MOHC.PRM
  Tot(85)        6        6     2065     67.6    673.1   1680.8   639.00      0.0     67.6      0.0      0.0      0.0     95.0       22    175.7    140.8       76     0.000     0.000     0.000     0.000       94        0       42       25        0       29       19     8.297       35     29.4    2.439   -9.900     0.93    0.000    0.000       26        9     2065  Maize_Short_Soroca_6June_NonOptimum_85_MOHC.PRM
  Tot(86)        6        6     2066    128.1    663.3   1731.4   647.00      0.0    124.5      3.6      0.0      0.0    122.9       30    203.5    164.3       81     0.000     0.000     0.000     0.000      107        0       42       25        1       35       12    10.675       43     38.6    4.116   -9.900     1.26    0.000    0.000       26        9     2066  Maize_Short_Soroca_6June_NonOptimum_85_MOHC.PRM
  Tot(87)        6        6     2067     91.3    739.9   1851.7   654.00      0.0     84.3      7.0     11.1      0.0    107.8       20    158.3    129.8       78     0.000     0.000     0.000     0.000       90        0       42       25        0       38       17     6.508       26     27.3    1.775   -9.900     0.68    0.000    0.000       26        9     2067  Maize_Short_Soroca_6June_NonOptimum_85_MOHC.PRM
  Tot(88)        6        6     2068    183.8    604.2   1671.8   662.00      0.0    178.5      5.3      0.8      0.0    125.6       46    250.0    194.6       79     0.000     0.000     0.000     0.000      107        0       42       25        2       10       13    13.407       54     34.2    4.587   -9.900     1.22    0.000    0.000       26        9     2068  Maize_Short_Soroca_6June_NonOptimum_85_MOHC.PRM
  Tot(89)        6        6     2069    161.5    675.0   1761.0   669.00      0.0    139.4     22.1     35.5      0.0    122.5       32    182.2    146.2       74     0.000     0.000     0.000     0.000       89        0       42       25        0       29       20     7.864       32     17.3    1.363   -9.900     0.45    0.000    0.000       26        9     2069  Maize_Short_Soroca_6June_NonOptimum_85_MOHC.PRM
  Tot(90)        6        6     2070     94.0    691.6   1748.3   677.00      0.0     88.0      6.0     26.7      0.0     88.8       21    166.9    134.4       72     0.000     0.000     0.000     0.000       84        0       42       25        0       33       20     6.590       26     20.9    1.375   -9.900     0.55    0.000    0.000       26        9     2070  Maize_Short_Soroca_6June_NonOptimum_85_MOHC.PRM
  Tot(91)        6        6     2071    147.8    689.2   1844.8   685.00      0.0    142.9      4.9      4.4      0.0    137.4       28    161.3    131.7       77     0.000     0.000     0.000     0.000      107        0       42       25        1       37       13     6.947       28     19.2    1.333   -9.900     0.45    0.000    0.000       26        9     2071  Maize_Short_Soroca_6June_NonOptimum_85_MOHC.PRM
  Tot(92)        6        6     2072     94.5    720.1   1832.6   693.00      0.0     90.0      4.5      3.9      0.0    118.4       24    157.3    128.1       75     0.000     0.000     0.000     0.000       85        0       42       25        0       37       19     6.216       25     22.1    1.371   -9.900     0.50    0.000    0.000       26        9     2072  Maize_Short_Soroca_6June_NonOptimum_85_MOHC.PRM
  Tot(93)        6        6     2073    108.0    674.8   1766.7   701.00      0.0    106.8      1.2      0.0      0.0    123.2       29    174.9    140.7       76     0.000     0.000     0.000     0.000      107        0       42       25        1       32       17     8.025       32     40.3    3.235   -9.900     1.09    0.000    0.000       26        9     2073  Maize_Short_Soroca_6June_NonOptimum_85_MOHC.PRM
  Tot(94)        6        6     2074     94.8    723.9   1763.4   709.00      0.0     84.2     10.6     12.7      0.0     81.3       18    188.1    151.0       76     0.000     0.000     0.000     0.000       92        0       42       25        0       30       19     7.603       32     29.0    2.208   -9.900     0.87    0.000    0.000       26        9     2074  Maize_Short_Soroca_6June_NonOptimum_85_MOHC.PRM
  Tot(95)        6        6     2075     78.5    748.3   1888.0   717.00      0.0     78.1      0.4      0.0      0.0    101.3       19    176.7    143.7       78     0.000     0.000     0.000     0.000      107        0       42       25        0       36       17     8.213       33     17.8    1.465   -9.900     0.53    0.000    0.000       26        9     2075  Maize_Short_Soroca_6June_NonOptimum_85_MOHC.PRM
  Tot(96)        6        6     2076     59.4    753.5   1896.5   725.00      0.0     59.4      0.0      0.0      0.0    100.2       18    150.3    124.0       79     0.000     0.000     0.000     0.000       95        0       42       25        0       39       16     6.173       25     24.0    1.483   -9.900     0.61    0.000    0.000       26        9     2076  Maize_Short_Soroca_6June_NonOptimum_85_MOHC.PRM
  Tot(97)        6        6     2077    112.9    675.7   1776.1   733.00      0.0    111.7      1.2      0.0      0.0    105.9       25    197.1    159.5       80     0.000     0.000     0.000     0.000      107        0       42       25        2       36       12     9.641       39      8.3    0.801   -9.900     0.26    0.000    0.000       26        9     2077  Maize_Short_Soroca_6June_NonOptimum_85_MOHC.PRM
  Tot(98)        6        6     2078    125.7    689.5   1802.4   742.00      0.0    125.0      0.7      0.0      0.0    137.7       37    191.2    152.2       71     0.000     0.000     0.000     0.000       91        0       42       25        0       24       21     8.335       34     10.3    0.861   -9.900     0.27    0.000    0.000       26        9     2078  Maize_Short_Soroca_6June_NonOptimum_85_MOHC.PRM
  Tot(99)        6        6     2079     75.0    730.4   1866.2   750.00      0.0     72.7      2.3      4.0      0.0     95.4       17    160.5    132.5       84     0.000     0.000     0.000     0.000      107        0       42       25        0       40       14     7.283       29     40.6    2.960   -9.900     1.16    0.000    0.000       26        9     2079  Maize_Short_Soroca_6June_NonOptimum_85_MOHC.PRM
 Tot(100)        6        6     2080    108.2    788.7   1962.5   758.00      0.0    107.0      1.2      0.0      0.0    109.5       22    218.4    174.7       81     0.000     0.000     0.000     0.000      107        0       42       25        0       22       17    10.672       43     15.9    1.692   -9.900     0.52    0.000    0.000       26        9     2080  Maize_Short_Soroca_6June_NonOptimum_85_MOHC.PRM
 Tot(101)        6        6     2081    121.8    690.6   1783.2   767.00      0.0    110.7     11.1     10.3      0.0    120.7       26    153.0    123.9       75     0.000     0.000     0.000     0.000       88        0       42       25        0       35       18     6.421       27     24.2    1.555   -9.900     0.61    0.000    0.000       26        9     2081  Maize_Short_Soroca_6June_NonOptimum_85_MOHC.PRM
 Tot(102)        6        6     2082     73.2    794.3   1946.8   775.00      0.0     72.4      0.8      0.0      0.0     97.5       18    160.6    130.6       73     0.000     0.000     0.000     0.000       83        0       42       25        1       36       20     5.843       24      0.0    0.001   -9.900     0.00    0.000    0.000       26        9     2082  Maize_Short_Soroca_6June_NonOptimum_85_MOHC.PRM
 Tot(103)        6        6     2083     51.0    759.0   1839.2   784.00      0.0     46.6      4.4      4.4      0.0     81.6       14    145.8    120.1       78     0.000     0.000     0.000     0.000       89        0       42       25        0       40       17     5.540       23      1.6    0.090   -9.900     0.04    0.000    0.000       26        9     2083  Maize_Short_Soroca_6June_NonOptimum_85_MOHC.PRM
 Tot(104)        6        6     2084     19.3    722.3   1866.9   792.00      0.0     19.3      0.0      0.0      0.0     60.8       12    151.9    123.7       77     0.000     0.000     0.000     0.000       90        0       42       25        0       37       17     6.464       26     22.3    1.440   -9.900     0.68    0.000    0.000       26        9     2084  Maize_Short_Soroca_6June_NonOptimum_85_MOHC.PRM
 Tot(105)        6        6     2085     66.3    749.0   1913.3   801.00      0.0     66.3      0.0      0.0      0.0    103.5       19    154.6    126.7       79     0.000     0.000     0.000     0.000       93        0       42       25        0       39       17     6.464       26     30.3    1.961   -9.900     0.79    0.000    0.000       26        9     2085  Maize_Short_Soroca_6June_NonOptimum_85_MOHC.PRM
 Tot(106)        6        6     2086     88.5    711.6   1881.9   810.00      0.0     88.3      0.2      0.0      0.0    106.5       24    190.3    153.5       79     0.000     0.000     0.000     0.000       97        0       42       25        0       31       18     8.457       34     34.1    2.888   -9.900     0.98    0.000    0.000       26        9     2086  Maize_Short_Soroca_6June_NonOptimum_85_MOHC.PRM
 Tot(107)        6        6     2087     66.5    822.0   1954.6   818.00      0.0     64.6      1.9      0.0      0.0     77.8       12    154.9    127.7       85     0.000     0.000     0.000     0.000      107        0       42       25        1       41       10     7.055       29     29.0    2.044   -9.900     0.88    0.000    0.000       26        9     2087  Maize_Short_Soroca_6June_NonOptimum_85_MOHC.PRM
 Tot(108)        6        6     2088     46.5    847.5   1947.5   827.00      0.0     44.5      2.0      0.0      0.0     58.9        8    148.7    123.9       84     0.000     0.000     0.000     0.000      107        0       42       25        0       43       14     6.249       25     14.4    0.902   -9.900     0.43    0.000    0.000       26        9     2088  Maize_Short_Soroca_6June_NonOptimum_85_MOHC.PRM
 Tot(109)        6        6     2089     73.5    826.9   1954.5   836.00      0.0     73.2      0.3      0.0      0.0    100.4       15    146.4    121.1       80     0.000     0.000     0.000     0.000       95        0       42       25        0       42       16     5.537       23      7.1    0.391   -9.900     0.17    0.000    0.000       26        9     2089  Maize_Short_Soroca_6June_NonOptimum_85_MOHC.PRM
 Tot(110)        6        6     2090    191.6    754.1   1913.9   845.00      0.0    136.0     55.6     61.2      0.0    106.2       20    147.1    120.2       74     0.000     0.000     0.000     0.000       85        0       42       25        0       38       19     5.468       22     15.9    0.872   -9.900     0.36    0.000    0.000       26        9     2090  Maize_Short_Soroca_6June_NonOptimum_85_MOHC.PRM
 Tot(111)        6        6     2091     28.9    913.5   2082.0   854.00      0.0     28.9      0.0      0.0      0.0     70.6        9    143.1    119.4       84     0.000     0.000     0.000     0.000      107        0       42       25        0       45       14     5.289       22      3.4    0.177   -9.900     0.08    0.000    0.000       26        9     2091  Maize_Short_Soroca_6June_NonOptimum_85_MOHC.PRM
 Tot(112)        6        6     2092     40.6    862.7   1933.7   863.00      0.0     40.6      0.0      0.0      0.0     71.2       10    143.6    119.4       82     0.000     0.000     0.000     0.000      107        0       42       25        2       44       13     5.622       24     27.9    1.566   -9.900     0.73    0.000    0.000       26        9     2092  Maize_Short_Soroca_6June_NonOptimum_85_MOHC.PRM
 Tot(113)        6        6     2093    156.0    822.9   1991.9   872.00      0.0    148.7      7.3      0.0      0.0    132.8       24    175.9    142.1       74     0.000     0.000     0.000     0.000      107        0       42       25        0       34       17     6.377       26      5.6    0.357   -9.900     0.12    0.000    0.000       26        9     2093  Maize_Short_Soroca_6June_NonOptimum_85_MOHC.PRM
 Tot(114)        6        6     2094     54.2    807.6   1959.6   881.00      0.0     53.5      0.7      0.0      0.0     96.6       15    149.4    123.2       81     0.000     0.000     0.000     0.000       96        0       42       25        0       39       16     6.104       25     16.2    0.991   -9.900     0.42    0.000    0.000       26        9     2094  Maize_Short_Soroca_6June_NonOptimum_85_MOHC.PRM
 Tot(115)        6        6     2095     61.6    832.9   1930.6   890.00      0.0     57.1      4.5      0.0      0.0     73.6       11    165.7    136.7       89     0.000     0.000     0.000     0.000      107        0       42       25        1       43        6     7.587       32     30.0    2.273   -9.900     0.95    0.000    0.000       26        9     2095  Maize_Short_Soroca_6June_NonOptimum_85_MOHC.PRM
 Tot(116)        6        6     2096     24.9    792.7   2018.8   899.00      0.0     23.4      1.5      1.0      0.0     63.1       12    155.1    126.8       74     0.000     0.000     0.000     0.000       89        0       42       25        0       35       19     6.411       27     10.0    0.640   -9.900     0.30    0.000    0.000       26        9     2096  Maize_Short_Soroca_6June_NonOptimum_85_MOHC.PRM
 Tot(117)        6        6     2097     41.6    767.0   1872.6   908.00      0.0     41.5      0.1      0.0      0.0     85.7       14    158.2    130.5       86     0.000     0.000     0.000     0.000      107        0       42       25        0       39       13     7.731       32     40.7    3.145   -9.900     1.29    0.000    0.000       26        9     2097  Maize_Short_Soroca_6June_NonOptimum_85_MOHC.PRM
 Tot(118)        6        6     2098    100.4    760.0   1938.1   917.00      0.0     98.4      2.0      0.0      0.0    117.5       20    148.9    123.2       83     0.000     0.000     0.000     0.000      107        0       42       25        1       42       13     5.970       25     39.7    2.372   -9.900     0.89    0.000    0.000       26        9     2098  Maize_Short_Soroca_6June_NonOptimum_85_MOHC.PRM
 Tot(119)        6        6     2099    185.3    639.9   1823.4   927.00      0.0    153.8     31.5     21.6      0.0    111.5       37    233.3    182.1       80     0.000     0.000     0.000     0.000      104        0       42       25        0       10       18    11.294       48     27.3    3.081   -9.900     0.89    0.000    0.000       26        9     2099  Maize_Short_Soroca_6June_NonOptimum_85_MOHC.PRM
