AquaCrop 7.0 (August 2022) - Output created on (date) : 23-11-2022   at (time) : 14:31:00

    RunNr     Day1   Month1    Year1     Rain      ETo       GD     CO2      Irri   Infilt   Runoff    Drain   Upflow        E     E/Ex       Tr      TrW   Tr/Trx    SaltIn   SaltOut    SaltUp  SaltProf     Cycle   SaltStr  FertStr  WeedStr  TempStr   ExpStr   StoStr  BioMass  Brelative   HI    Y(dry)  Y(fresh)    WPet      Bin     Bout     DayN   MonthN    YearN
                                           mm       mm  degC.day    ppm        mm       mm       mm       mm       mm       mm        %       mm       mm        %    ton/ha    ton/ha    ton/ha    ton/ha      days       %        %        %        %        %        %    ton/ha        %       %    ton/ha   ton/ha    kg/m3   ton/ha   ton/ha
   Tot(1)       22        5     1981    240.8    460.2   1219.9   340.11      0.0    210.3     30.5     45.0      0.0    104.1       48    244.4    242.8      100     0.000     0.000     0.000     0.000      107        0        0        0       13        3        0    19.498       95     40.1    7.815   -9.900     2.24    0.000    0.000       11        9     1981  Maize_Short_Soroca_22May_Optimum_26_MPI.PRM
   Tot(2)       22        5     1982    274.6    445.7   1204.3   341.22      0.0    238.9     35.7     42.9      0.0    128.1       64    250.3    250.0      100     0.000     0.000     0.000     0.000      107        0        0        0       11        2        0    20.705       96     40.0    8.291   -9.900     2.19    0.000    0.000       11        9     1982  Maize_Short_Soroca_22May_Optimum_26_MPI.PRM
   Tot(3)       22        5     1983    219.2    435.3   1214.1   342.84      0.0    214.3      4.9      0.1      0.0    106.4       56    242.1    241.1      100     0.000     0.000     0.000     0.000      107        0        0        0       11        1        0    20.404       97     40.0    8.162   -9.900     2.34    0.000    0.000       11        9     1983  Maize_Short_Soroca_22May_Optimum_26_MPI.PRM
   Tot(4)       22        5     1984    324.1    420.3   1075.3   344.40      0.0    305.9     18.2     19.5      0.0    155.4       90    234.9    236.4      100     0.000     0.000     0.000     0.000      107        0        0        0       18        0        0    19.737       98     40.0    7.895   -9.900     2.02    0.000    0.000       11        9     1984  Maize_Short_Soroca_22May_Optimum_26_MPI.PRM
   Tot(5)       22        5     1985    381.4    448.7   1131.4   345.87      0.0    343.1     38.3     63.4      0.0    143.5       80    261.4    261.9      100     0.000     0.000     0.000     0.000      107        0        0        0       17        1        0    19.769       97     40.1    7.930   -9.900     1.96    0.000    0.000       11        9     1985  Maize_Short_Soroca_22May_Optimum_26_MPI.PRM
   Tot(6)       22        5     1986    162.2    512.9   1240.3   347.19      0.0    161.8      0.4      0.0      0.0    109.8       46    253.4    252.8       94     0.000     0.000     0.000     0.000      107        0        0        0       13        7        5    18.052       88     40.1    7.241   -9.900     1.99    0.000    0.000       11        9     1986  Maize_Short_Soroca_22May_Optimum_26_MPI.PRM
   Tot(7)       22        5     1987    256.6    456.5   1133.8   348.98      0.0    246.2     10.4     15.1      0.0    136.1       68    245.6    245.3      100     0.000     0.000     0.000     0.000      107        0        0        0       17       12        0    18.730       94     40.5    7.588   -9.900     1.99    0.000    0.000       11        9     1987  Maize_Short_Soroca_22May_Optimum_26_MPI.PRM
   Tot(8)       22        5     1988    324.3    426.4   1235.2   351.45      0.0    304.9     19.4     38.9      0.0    140.6       84    261.7    262.8      100     0.000     0.000     0.000     0.000      107        0        0        0       12        1        0    20.589       98     40.1    8.252   -9.900     2.05    0.000    0.000       11        9     1988  Maize_Short_Soroca_22May_Optimum_26_MPI.PRM
   Tot(9)       22        5     1989    398.6    434.0   1151.2   352.89      0.0    334.0     64.6     24.5      0.0    114.7       60    245.6    246.2      100     0.000     0.000     0.000     0.000      107        0        0        0       14        4        0    19.987       96     40.1    8.023   -9.900     2.23    0.000    0.000       11        9     1989  Maize_Short_Soroca_22May_Optimum_26_MPI.PRM
  Tot(10)       22        5     1990    193.6    463.7   1109.4   354.16      0.0    190.8      2.8      6.4      0.0    145.0       75    243.2    243.1       92     0.000     0.000     0.000     0.000      107        0        0        0       17        6        8    18.291       87     40.2    7.347   -9.900     1.89    0.000    0.000       11        9     1990  Maize_Short_Soroca_22May_Optimum_26_MPI.PRM
  Tot(11)       22        5     1991    419.0    410.7   1159.5   355.48      0.0    366.8     52.2     52.7      0.0    138.5       81    241.6    240.6      100     0.000     0.000     0.000     0.000      107        0        0        0       14        1        0    20.834       98     40.0    8.339   -9.900     2.19    0.000    0.000       11        9     1991  Maize_Short_Soroca_22May_Optimum_26_MPI.PRM
  Tot(12)       22        5     1992    208.9    511.5   1268.1   356.27      0.0    203.2      5.7     14.5      0.0    147.2       71    241.9    243.0       80     0.000     0.000     0.000     0.000      107        0        0        0       11       13       14    15.503       70     39.8    6.174   -9.900     1.59    0.000    0.000       11        9     1992  Maize_Short_Soroca_22May_Optimum_26_MPI.PRM
  Tot(13)       22        5     1993    240.0    450.5   1102.8   356.95      0.0    233.7      6.3      5.7      0.0    119.2       61    243.7    242.4      100     0.000     0.000     0.000     0.000      107        0        0        0       17        2        0    19.030       97     40.1    7.623   -9.900     2.10    0.000    0.000       11        9     1993  Maize_Short_Soroca_22May_Optimum_26_MPI.PRM
  Tot(14)       22        5     1994    254.5    502.2   1248.0   358.63      0.0    222.8     31.7     20.8      0.0    124.3       56    248.7    248.7       87     0.000     0.000     0.000     0.000      107        0        0        0       12       13        8    17.227       76     40.5    6.973   -9.900     1.87    0.000    0.000       11        9     1994  Maize_Short_Soroca_22May_Optimum_26_MPI.PRM
  Tot(15)       22        5     1995    376.0    484.7   1320.2   360.62      0.0    320.5     55.5     21.5      0.0    109.4       50    278.5    278.2      100     0.000     0.000     0.000     0.000      107        0        0        0        6        4        0    21.120       95     40.1    8.460   -9.900     2.18    0.000    0.000       11        9     1995  Maize_Short_Soroca_22May_Optimum_26_MPI.PRM
  Tot(16)       22        5     1996    300.9    473.4   1194.7   362.37      0.0    280.7     20.2     14.7      0.0     98.5       42    244.4    246.0      100     0.000     0.000     0.000     0.000      107        0        0        0       13        3        0    19.712       95     40.0    7.885   -9.900     2.30    0.000    0.000       11        9     1996  Maize_Short_Soroca_22May_Optimum_26_MPI.PRM
  Tot(17)       22        5     1997    330.4    417.9   1118.9   363.47      0.0    311.2     19.2     16.2      0.0    121.6       65    228.4    228.1      100     0.000     0.000     0.000     0.000      107        0        0        0       15        1        0    20.623       97     40.0    8.249   -9.900     2.36    0.000    0.000       11        9     1997  Maize_Short_Soroca_22May_Optimum_26_MPI.PRM
  Tot(18)       22        5     1998    279.4    435.7   1188.1   366.50      0.0    261.5     17.9     17.9      0.0    117.5       66    246.1    244.0      100     0.000     0.000     0.000     0.000      107        0        0        0       15        1        0    19.204       97     40.0    7.683   -9.900     2.11    0.000    0.000       11        9     1998  Maize_Short_Soroca_22May_Optimum_26_MPI.PRM
  Tot(19)       22        5     1999    167.8    514.8   1406.8   368.14      0.0    167.8      0.0      0.0      0.0    106.3       41    257.4    258.5       94     0.000     0.000     0.000     0.000      107        0        0        0        3       16        4    19.349       84     40.5    7.845   -9.900     2.16    0.000    0.000       11        9     1999  Maize_Short_Soroca_22May_Optimum_26_MPI.PRM
  Tot(20)       22        5     2000    266.5    494.1   1237.4   369.41      0.0    256.4     10.1     11.7      0.0    112.2       48    270.3    269.9      100     0.000     0.000     0.000     0.000      107        0        0        0       12        2        0    20.703       95     40.0    8.282   -9.900     2.17    0.000    0.000       11        9     2000  Maize_Short_Soroca_22May_Optimum_26_MPI.PRM
  Tot(21)       22        5     2001    315.8    471.8   1256.9   371.07      0.0    291.7     24.1     19.9      0.0    135.7       74    285.6    287.3       96     0.000     0.000     0.000     0.000      107        0        0        0       13        1        4    20.484       92     40.0    8.190   -9.900     1.94    0.000    0.000       11        9     2001  Maize_Short_Soroca_22May_Optimum_26_MPI.PRM
  Tot(22)       22        5     2002    383.6    500.9   1374.8   373.16      0.0    349.5     34.1      2.8      0.0    144.8       64    295.6    295.2      100     0.000     0.000     0.000     0.000      107        0        0        0        7       10        0    21.668       93     40.1    8.690   -9.900     1.97    0.000    0.000       11        9     2002  Maize_Short_Soroca_22May_Optimum_26_MPI.PRM
  Tot(23)       22        5     2003    341.0    524.1   1271.7   375.80      0.0    288.4     52.6     47.8      0.0    102.3       39    266.2    265.0      100     0.000     0.000     0.000     0.000      107        0        0        0       11        4        0    20.090       94     40.0    8.038   -9.900     2.18    0.000    0.000       11        9     2003  Maize_Short_Soroca_22May_Optimum_26_MPI.PRM
  Tot(24)       22        5     2004    246.8    480.3   1170.9   377.49      0.0    225.9     20.9      0.0      0.0     76.1       31    243.8    245.6      100     0.000     0.000     0.000     0.000      107        0        0        0       12        7        0    20.107       93     40.1    8.065   -9.900     2.52    0.000    0.000       11        9     2004  Maize_Short_Soroca_22May_Optimum_26_MPI.PRM
  Tot(25)       22        5     2005    191.9    472.0   1278.0   379.80      0.0    190.3      1.6      0.5      0.0    108.7       51    269.4    267.5       99     0.000     0.000     0.000     0.000      107        0        0        0        8        5        1    21.696       95     40.2    8.724   -9.900     2.31    0.000    0.000       11        9     2005  Maize_Short_Soroca_22May_Optimum_26_MPI.PRM
  Tot(26)       22        5     2006    297.5    485.6   1226.9   381.90      0.0    283.3     14.2     20.3      0.0    130.8       64    286.8    287.4       99     0.000     0.000     0.000     0.000      107        0        0        0       14       11        0    20.990       94     40.5    8.503   -9.900     2.04    0.000    0.000       11        9     2006  Maize_Short_Soroca_22May_Optimum_26_MPI.PRM
  Tot(27)       22        5     2007    171.9    576.2   1439.4   383.77      0.0    171.9      0.0      0.0      0.0    111.7       35    248.0    248.3       90     0.000     0.000     0.000     0.000      107        0        0        0        5       24        7    16.856       74     40.8    6.870   -9.900     1.91    0.000    0.000       11        9     2007  Maize_Short_Soroca_22May_Optimum_26_MPI.PRM
  Tot(28)       22        5     2008    348.1    533.3   1326.6   385.59      0.0    288.2     59.9      0.7      0.0    123.6       54    317.8    317.1      100     0.000     0.000     0.000     0.000      107        0        0        0        6        6        0    21.950       94     40.0    8.780   -9.900     1.99    0.000    0.000       11        9     2008  Maize_Short_Soroca_22May_Optimum_26_MPI.PRM
  Tot(29)       22        5     2009    203.0    548.8   1334.5   387.37      0.0    201.4      1.6      0.3      0.0    154.6       62    265.5    266.8       86     0.000     0.000     0.000     0.000      107        0        0        0        7        8       13    17.783       76     40.0    7.113   -9.900     1.69    0.000    0.000       11        9     2009  Maize_Short_Soroca_22May_Optimum_26_MPI.PRM
  Tot(30)       22        5     2010    347.1    480.7   1367.9   389.85      0.0    318.5     28.6     55.2      0.0    140.3       70    283.4    282.4       98     0.000     0.000     0.000     0.000      107        0        0        0        9        1        1    21.105       96     40.0    8.452   -9.900     2.00    0.000    0.000       11        9     2010  Maize_Short_Soroca_22May_Optimum_26_MPI.PRM
  Tot(31)       22        5     2011    182.7    539.3   1341.3   391.63      0.0    180.8      1.9      0.0      0.0    124.7       48    270.0    270.8       91     0.000     0.000     0.000     0.000      107        0        0        0        6        7        8    19.361       84     39.9    7.733   -9.900     1.96    0.000    0.000       11        9     2011  Maize_Short_Soroca_22May_Optimum_26_MPI.PRM
  Tot(32)       22        5     2012    126.3    606.4   1414.1   393.82      0.0    126.0      0.3      0.0      0.0    116.6       35    223.3    223.5       79     0.000     0.000     0.000     0.000      107        0        0        0        6       25       16    13.891       61     40.4    5.608   -9.900     1.65    0.000    0.000       11        9     2012  Maize_Short_Soroca_22May_Optimum_26_MPI.PRM
  Tot(33)       22        5     2013    245.3    495.7   1303.4   396.48      0.0    225.7     19.6     20.7      0.0    155.8       71    237.6    237.3       86     0.000     0.000     0.000     0.000      107        0        0        0        7        9        8    17.534       77     40.2    7.050   -9.900     1.79    0.000    0.000       11        9     2013  Maize_Short_Soroca_22May_Optimum_26_MPI.PRM
  Tot(34)       22        5     2014    253.7    516.6   1359.2   398.55      0.0    231.9     21.8     10.0      0.0    103.5       48    307.9    306.5       99     0.000     0.000     0.000     0.000      107        0        0        0        7        2        1    22.091       95     40.0    8.837   -9.900     2.15    0.000    0.000       11        9     2014  Maize_Short_Soroca_22May_Optimum_26_MPI.PRM
  Tot(35)       22        5     2015     64.6    613.4   1397.9   401.00      0.0     64.6      0.0      0.0      0.0     90.2       24    179.8    182.0       77     0.000     0.000     0.000     0.000       97        0        0        0        5       28       19    10.585       46     34.0    3.601   -9.900     1.39    0.000    0.000       11        9     2015  Maize_Short_Soroca_22May_Optimum_26_MPI.PRM
  Tot(36)       22        5     2016    223.5    541.1   1411.6   403.00      0.0    221.3      2.2      0.5      0.0    172.0       75    271.0    270.3       84     0.000     0.000     0.000     0.000      107        0        0        0        5       16       13    17.853       75     40.4    7.212   -9.900     1.63    0.000    0.000       11        9     2016  Maize_Short_Soroca_22May_Optimum_26_MPI.PRM
  Tot(37)       22        5     2017    190.2    557.9   1350.9   405.00      0.0    188.7      1.5      0.3      0.0    148.1       57    258.0    258.1       86     0.000     0.000     0.000     0.000      107        0        0        0        6       12       13    17.375       75     40.1    6.968   -9.900     1.72    0.000    0.000       11        9     2017  Maize_Short_Soroca_22May_Optimum_26_MPI.PRM
  Tot(38)       22        5     2018    247.0    517.0   1451.6   408.00      0.0    234.6     12.4      7.5      0.0    111.3       46    293.2    292.8       99     0.000     0.000     0.000     0.000      107        0        0        0        4        3        1    22.331       94     40.0    8.931   -9.900     2.21    0.000    0.000       11        9     2018  Maize_Short_Soroca_22May_Optimum_26_MPI.PRM
  Tot(39)       22        5     2019    224.9    551.2   1441.3   410.00      0.0    207.2     17.7     24.8      0.0    162.1       65    244.6    245.3       82     0.000     0.000     0.000     0.000      107        0        0        0        3        9       16    17.121       72     39.6    6.786   -9.900     1.67    0.000    0.000       11        9     2019  Maize_Short_Soroca_22May_Optimum_26_MPI.PRM
  Tot(40)       22        5     2020    241.1    426.6   1073.6   412.00      0.0    236.6      4.5      0.0      0.0    120.9       66    225.9    225.1      100     0.000     0.000     0.000     0.000      107        0        0        0       19        4        0    18.685       96     40.2    7.518   -9.900     2.17    0.000    0.000       11        9     2020  Maize_Short_Soroca_22May_Optimum_26_MPI.PRM
  Tot(41)       22        5     2021    216.4    460.1   1109.6   414.00      0.0    215.8      0.6      0.0      0.0    102.6       51    259.9    259.2      100     0.000     0.000     0.000     0.000      107        0        0        0       17        5        0    21.175       95     40.2    8.505   -9.900     2.35    0.000    0.000       11        9     2021  Maize_Short_Soroca_22May_Optimum_26_MPI.PRM
  Tot(42)       22        5     2022    358.7    410.0   1049.4   417.00      0.0    296.7     62.0     17.2      0.0    127.8       84    245.1    244.2      100     0.000     0.000     0.000     0.000      107        0        0        0       22        7        0    19.539       97     40.4    7.898   -9.900     2.12    0.000    0.000       11        9     2022  Maize_Short_Soroca_22May_Optimum_26_MPI.PRM
  Tot(43)       22        5     2023    231.5    540.7   1274.8   419.00      0.0    223.8      7.7      4.4      0.0    128.7       45    247.3    248.4       99     0.000     0.000     0.000     0.000      107        0        0        0       13       17        0    18.387       89     40.4    7.431   -9.900     1.98    0.000    0.000       11        9     2023  Maize_Short_Soroca_22May_Optimum_26_MPI.PRM
  Tot(44)       22        5     2024    203.2    466.2   1119.5   421.00      0.0    191.7     11.5      0.0      0.0    106.7       49    242.0    241.8      100     0.000     0.000     0.000     0.000      107        0        0        0       17        8        0    19.853       95     40.4    8.020   -9.900     2.30    0.000    0.000       11        9     2024  Maize_Short_Soroca_22May_Optimum_26_MPI.PRM
  Tot(45)       22        5     2025    193.8    473.6   1178.0   423.00      0.0    193.5      0.3      0.0      0.0    120.4       54    247.3    248.8       98     0.000     0.000     0.000     0.000      107        0        0        0       12        4        1    20.375       94     40.0    8.157   -9.900     2.22    0.000    0.000       11        9     2025  Maize_Short_Soroca_22May_Optimum_26_MPI.PRM
  Tot(46)       22        5     2026    138.1    514.5   1127.3   424.00      0.0    138.1      0.0      0.0      0.0    112.8       43    222.9    221.2       89     0.000     0.000     0.000     0.000      107        0        0        0       15       21        8    16.477       77     40.5    6.667   -9.900     1.99    0.000    0.000       11        9     2026  Maize_Short_Soroca_22May_Optimum_26_MPI.PRM
  Tot(47)       22        5     2027    352.1    377.7   1007.8   426.00      0.0    306.7     45.4     27.9      0.0    116.5       78    210.8    212.2      100     0.000     0.000     0.000     0.000      107        0        0        0       20        0        0    20.035       98     40.0    8.014   -9.900     2.45    0.000    0.000       11        9     2027  Maize_Short_Soroca_22May_Optimum_26_MPI.PRM
  Tot(48)       22        5     2028    212.0    424.8   1044.4   428.00      0.0    211.2      0.8      0.8      0.0    122.9       67    226.9    226.0      100     0.000     0.000     0.000     0.000      107        0        0        0       18        1        0    20.246       97     40.1    8.109   -9.900     2.32    0.000    0.000       11        9     2028  Maize_Short_Soroca_22May_Optimum_26_MPI.PRM
  Tot(49)       22        5     2029    227.2    418.6   1017.9   429.00      0.0    225.1      2.1      0.0      0.0    113.4       66    226.5    226.7      100     0.000     0.000     0.000     0.000      107        0        0        0       24        1        0    19.402       97     40.0    7.765   -9.900     2.28    0.000    0.000       11        9     2029  Maize_Short_Soroca_22May_Optimum_26_MPI.PRM
  Tot(50)       22        5     2030    259.4    489.0   1149.2   431.00      0.0    247.5     11.9     16.1      0.0    111.0       59    286.3    286.6      100     0.000     0.000     0.000     0.000      107        0        0        0       18        3        0    20.602       96     40.0    8.250   -9.900     2.08    0.000    0.000       11        9     2030  Maize_Short_Soroca_22May_Optimum_26_MPI.PRM
  Tot(51)       22        5     2031    287.8    446.5   1123.4   432.00      0.0    281.3      6.5      0.0      0.0    111.2       50    216.2    217.3      100     0.000     0.000     0.000     0.000      107        0        0        0       18        4        0    19.263       95     40.1    7.721   -9.900     2.36    0.000    0.000       11        9     2031  Maize_Short_Soroca_22May_Optimum_26_MPI.PRM
  Tot(52)       22        5     2032    191.3    460.9   1095.4   433.00      0.0    191.0      0.3      0.0      0.0    137.0       72    246.7    245.5       97     0.000     0.000     0.000     0.000      107        0        0        0       17        3        3    19.638       94     40.1    7.883   -9.900     2.05    0.000    0.000       11        9     2032  Maize_Short_Soroca_22May_Optimum_26_MPI.PRM
  Tot(53)       22        5     2033    182.9    459.1   1073.7   435.00      0.0    178.3      4.6      0.0      0.0     95.4       45    228.5    229.2      100     0.000     0.000     0.000     0.000      107        0        0        0       20        3        0    19.192       95     40.0    7.684   -9.900     2.37    0.000    0.000       11        9     2033  Maize_Short_Soroca_22May_Optimum_26_MPI.PRM
  Tot(54)       22        5     2034    235.0    485.2   1177.4   436.00      0.0    229.3      5.7      0.0      0.0    110.1       49    261.8    261.3      100     0.000     0.000     0.000     0.000      107        0        0        0       15        6        0    20.928       94     40.2    8.410   -9.900     2.26    0.000    0.000       11        9     2034  Maize_Short_Soroca_22May_Optimum_26_MPI.PRM
  Tot(55)       22        5     2035    180.9    482.4   1105.0   437.00      0.0    174.4      6.5      1.4      0.0    112.0       56    234.9    235.3       89     0.000     0.000     0.000     0.000      107        0        0        0       19        5        7    17.671       84     39.9    7.059   -9.900     2.04    0.000    0.000       11        9     2035  Maize_Short_Soroca_22May_Optimum_26_MPI.PRM
  Tot(56)       22        5     2036    210.6    454.0   1138.0   438.00      0.0    207.2      3.4      8.0      0.0    118.8       58    243.4    241.7      100     0.000     0.000     0.000     0.000      107        0        0        0       13        6        0    20.919       96     40.2    8.405   -9.900     2.32    0.000    0.000       11        9     2036  Maize_Short_Soroca_22May_Optimum_26_MPI.PRM
  Tot(57)       22        5     2037    287.3    414.2   1018.6   438.00      0.0    281.8      5.5      2.1      0.0    104.8       52    198.1    199.8      100     0.000     0.000     0.000     0.000      107        0        0        0       21        2        0    19.295       96     40.0    7.723   -9.900     2.55    0.000    0.000       11        9     2037  Maize_Short_Soroca_22May_Optimum_26_MPI.PRM
  Tot(58)       22        5     2038    178.6    427.9   1089.7   439.00      0.0    177.1      1.5      1.4      0.0     96.5       53    232.4    232.7      100     0.000     0.000     0.000     0.000      107        0        0        0       19        8        0    20.359       96     40.3    8.208   -9.900     2.50    0.000    0.000       11        9     2038  Maize_Short_Soroca_22May_Optimum_26_MPI.PRM
  Tot(59)       22        5     2039    184.2    515.2   1112.6   440.00      0.0    179.2      5.0      0.7      0.0    108.3       45    255.7    254.0       96     0.000     0.000     0.000     0.000      107        0        0        0       16       19        2    18.765       87     40.9    7.668   -9.900     2.11    0.000    0.000       11        9     2039  Maize_Short_Soroca_22May_Optimum_26_MPI.PRM
  Tot(60)       22        5     2040    223.0    475.7   1108.0   440.00      0.0    208.1     14.9     15.1      0.0    131.5       64    243.1    242.8       95     0.000     0.000     0.000     0.000      107        0        0        0       17        4        3    19.576       92     40.2    7.869   -9.900     2.10    0.000    0.000       11        9     2040  Maize_Short_Soroca_22May_Optimum_26_MPI.PRM
  Tot(61)       22        5     2041    129.6    571.7   1189.4   441.00      0.0    128.6      1.0      0.0      0.0    116.0       38    202.1    204.3       78     0.000     0.000     0.000     0.000      107        0        0        0       13       21       17    12.789       56     40.1    5.129   -9.900     1.61    0.000    0.000       11        9     2041  Maize_Short_Soroca_22May_Optimum_26_MPI.PRM
  Tot(62)       22        5     2042    258.3    444.8   1113.2   441.00      0.0    246.0     12.3      0.0      0.0    108.1       50    220.4    219.0      100     0.000     0.000     0.000     0.000      107        0        0        0       15        3        0    20.341       96     40.0    8.144   -9.900     2.48    0.000    0.000       11        9     2042  Maize_Short_Soroca_22May_Optimum_26_MPI.PRM
  Tot(63)       22        5     2043    205.4    429.9   1011.9   441.00      0.0    199.2      6.2      9.4      0.0    111.4       61    229.6    229.9      100     0.000     0.000     0.000     0.000      107        0        0        0       24        2        0    19.612       96     40.1    7.856   -9.900     2.30    0.000    0.000       11        9     2043  Maize_Short_Soroca_22May_Optimum_26_MPI.PRM
  Tot(64)       22        5     2044    339.8    395.1   1013.4   442.00      0.0    317.0     22.8     38.7      0.0    122.1       69    198.4    199.5      100     0.000     0.000     0.000     0.000      107        0        0        0       23        2        0    19.342       97     40.0    7.745   -9.900     2.42    0.000    0.000       11        9     2044  Maize_Short_Soroca_22May_Optimum_26_MPI.PRM
  Tot(65)       22        5     2045    297.7    418.7   1126.4   442.00      0.0    272.2     25.5     35.2      0.0    108.4       61    236.5    234.5      100     0.000     0.000     0.000     0.000      107        0        0        0       16        1        0    21.366       97     40.0    8.554   -9.900     2.48    0.000    0.000       11        9     2045  Maize_Short_Soroca_22May_Optimum_26_MPI.PRM
  Tot(66)       22        5     2046    310.1    409.2   1083.7   442.00      0.0    288.5     21.6      0.0      0.0    114.5       58    200.5    202.4      100     0.000     0.000     0.000     0.000      107        0        0        0       17        3        0    19.585       96     40.1    7.844   -9.900     2.49    0.000    0.000       11        9     2046  Maize_Short_Soroca_22May_Optimum_26_MPI.PRM
  Tot(67)       22        5     2047    222.4    437.4   1163.9   442.00      0.0    208.6     13.8     27.7      0.0     95.2       55    263.0    262.0      100     0.000     0.000     0.000     0.000      107        0        0        0       14        2        0    21.910       97     40.0    8.774   -9.900     2.45    0.000    0.000       11        9     2047  Maize_Short_Soroca_22May_Optimum_26_MPI.PRM
  Tot(68)       22        5     2048    376.0    422.8   1140.4   442.00      0.0    305.1     70.9     25.4      0.0    123.2       66    230.2    229.0      100     0.000     0.000     0.000     0.000      107        0        0        0       13        3        0    21.495       97     40.2    8.633   -9.900     2.44    0.000    0.000       11        9     2048  Maize_Short_Soroca_22May_Optimum_26_MPI.PRM
  Tot(69)       22        5     2049    170.0    475.4   1066.6   443.00      0.0    168.3      1.7      3.4      0.0    109.4       52    240.6    240.9       99     0.000     0.000     0.000     0.000      107        0        0        0       19        8        1    18.892       94     40.3    7.613   -9.900     2.18    0.000    0.000       11        9     2049  Maize_Short_Soroca_22May_Optimum_26_MPI.PRM
  Tot(70)       22        5     2050    269.2    442.1   1058.0   443.00      0.0    240.3     28.9     39.4      0.0    119.4       60    226.9    227.9      100     0.000     0.000     0.000     0.000      107        0        0        0       21        3        0    19.204       97     40.2    7.720   -9.900     2.23    0.000    0.000       11        9     2050  Maize_Short_Soroca_22May_Optimum_26_MPI.PRM
  Tot(71)       22        5     2051    210.0    451.7   1076.0   443.00      0.0    209.4      0.6      0.5      0.0    114.2       58    245.9    246.0      100     0.000     0.000     0.000     0.000      107        0        0        0       16        8        0    20.451       95     40.3    8.247   -9.900     2.29    0.000    0.000       11        9     2051  Maize_Short_Soroca_22May_Optimum_26_MPI.PRM
  Tot(72)       22        5     2052    223.8    457.9   1153.3   443.00      0.0    212.1     11.7      0.0      0.0     97.6       41    213.7    213.9      100     0.000     0.000     0.000     0.000      107        0        0        0       15       10        0    19.339       93     40.2    7.780   -9.900     2.50    0.000    0.000       11        9     2052  Maize_Short_Soroca_22May_Optimum_26_MPI.PRM
  Tot(73)       22        5     2053    156.7    447.2   1059.5   443.00      0.0    153.9      2.8      7.0      0.0     83.5       44    241.9    242.0      100     0.000     0.000     0.000     0.000      107        0        0        0       18        2        0    20.336       96     40.0    8.140   -9.900     2.50    0.000    0.000       11        9     2053  Maize_Short_Soroca_22May_Optimum_26_MPI.PRM
  Tot(74)       22        5     2054    165.9    483.1   1134.0   443.00      0.0    163.8      2.1      0.0      0.0    103.6       51    262.2    262.8       96     0.000     0.000     0.000     0.000      107        0        0        0       14        4        3    20.544       92     40.1    8.230   -9.900     2.25    0.000    0.000       11        9     2054  Maize_Short_Soroca_22May_Optimum_26_MPI.PRM
  Tot(75)       22        5     2055    136.8    495.2   1132.5   443.00      0.0    136.6      0.2      0.0      0.0    109.4       48    233.2    232.9       90     0.000     0.000     0.000     0.000      107        0        0        0       17       13       10    17.576       81     40.3    7.083   -9.900     2.07    0.000    0.000       11        9     2055  Maize_Short_Soroca_22May_Optimum_26_MPI.PRM
  Tot(76)       22        5     2056    160.5    493.0   1152.8   442.00      0.0    157.3      3.2     13.7      0.0    116.4       57    241.3    241.2       86     0.000     0.000     0.000     0.000      107        0        0        0       13       10       11    17.822       79     39.9    7.110   -9.900     1.99    0.000    0.000       11        9     2056  Maize_Short_Soroca_22May_Optimum_26_MPI.PRM
  Tot(77)       22        5     2057    270.0    468.9   1147.6   442.00      0.0    245.8     24.2     10.8      0.0    116.3       59    255.5    254.5       98     0.000     0.000     0.000     0.000      107        0        0        0       15        3        1    20.459       95     40.1    8.205   -9.900     2.21    0.000    0.000       11        9     2057  Maize_Short_Soroca_22May_Optimum_26_MPI.PRM
  Tot(78)       22        5     2058    283.6    502.7   1153.9   442.00      0.0    248.5     35.1      0.0      0.0    104.8       38    226.1    227.8      100     0.000     0.000     0.000     0.000      107        0        0        0       14        8        0    18.902       92     40.1    7.586   -9.900     2.29    0.000    0.000       11        9     2058  Maize_Short_Soroca_22May_Optimum_26_MPI.PRM
  Tot(79)       22        5     2059    274.9    448.4   1116.3   442.00      0.0    245.1     29.8      3.3      0.0     83.5       37    218.2    218.0      100     0.000     0.000     0.000     0.000      107        0        0        0       18       14        0    18.360       92     40.5    7.433   -9.900     2.46    0.000    0.000       11        9     2059  Maize_Short_Soroca_22May_Optimum_26_MPI.PRM
  Tot(80)       22        5     2060    158.2    483.1   1181.6   442.00      0.0    154.8      3.4      2.9      0.0    114.6       61    244.2    243.2       85     0.000     0.000     0.000     0.000      107        0        0        0       15       12        9    17.943       79     40.5    7.274   -9.900     2.03    0.000    0.000       11        9     2060  Maize_Short_Soroca_22May_Optimum_26_MPI.PRM
  Tot(81)       22        5     2061    125.9    538.1   1251.8   441.00      0.0    125.8      0.1      0.0      0.0     88.8       32    242.9    243.7       89     0.000     0.000     0.000     0.000      107        0        0        0        9       23        9    17.520       75     40.4    7.074   -9.900     2.13    0.000    0.000       11        9     2061  Maize_Short_Soroca_22May_Optimum_26_MPI.PRM
  Tot(82)       22        5     2062    180.7    401.7    961.6   441.00      0.0    180.4      0.3      0.0      0.0    119.1       71    202.4    202.5      100     0.000     0.000     0.000     0.000      107        0        0        0       23        4        0    18.816       97     40.1    7.551   -9.900     2.35    0.000    0.000       11        9     2062  Maize_Short_Soroca_22May_Optimum_26_MPI.PRM
  Tot(83)       22        5     2063    234.4    493.8   1197.6   441.00      0.0    215.5     18.9      0.0      0.0    122.4       52    242.3    240.5       94     0.000     0.000     0.000     0.000      107        0        0        0       13       17        3    18.787       84     40.6    7.625   -9.900     2.09    0.000    0.000       11        9     2063  Maize_Short_Soroca_22May_Optimum_26_MPI.PRM
  Tot(84)       22        5     2064    258.6    458.7   1147.2   440.00      0.0    226.2     32.4      0.0      0.0     93.1       43    242.8    242.6      100     0.000     0.000     0.000     0.000      107        0        0        0       14        4        0    21.741       95     40.0    8.698   -9.900     2.59    0.000    0.000       11        9     2064  Maize_Short_Soroca_22May_Optimum_26_MPI.PRM
  Tot(85)       22        5     2065    204.4    378.7   1042.1   440.00      0.0    199.5      4.9      5.1      0.0    101.4       60    198.6    198.5      100     0.000     0.000     0.000     0.000      107        0        0        0       22        0        0    20.336       97     40.0    8.134   -9.900     2.71    0.000    0.000       11        9     2065  Maize_Short_Soroca_22May_Optimum_26_MPI.PRM
  Tot(86)       22        5     2066    244.8    444.5   1065.1   440.00      0.0    236.6      8.2      0.0      0.0    118.2       56    218.7    221.2      100     0.000     0.000     0.000     0.000      107        0        0        0       17        3        0    19.545       96     40.0    7.824   -9.900     2.32    0.000    0.000       11        9     2066  Maize_Short_Soroca_22May_Optimum_26_MPI.PRM
  Tot(87)       22        5     2067    208.2    382.7    888.6   439.00      0.0    205.2      3.0      0.0      0.0     93.6       54    179.3    178.7      100     0.000     0.000     0.000     0.000      107        0        0        0       28        2        0    18.075       97     40.1    7.242   -9.900     2.65    0.000    0.000       11        9     2067  Maize_Short_Soroca_22May_Optimum_26_MPI.PRM
  Tot(88)       22        5     2068    255.5    391.7    970.2   439.00      0.0    231.5     24.0     40.8      0.0    113.4       75    203.8    203.8      100     0.000     0.000     0.000     0.000      107        0        0        0       28        3        0    17.305       97     40.1    6.947   -9.900     2.19    0.000    0.000       11        9     2068  Maize_Short_Soroca_22May_Optimum_26_MPI.PRM
  Tot(89)       22        5     2069    342.3    473.0   1240.7   438.00      0.0    331.7     10.6      0.0      0.0    130.4       56    241.3    239.6      100     0.000     0.000     0.000     0.000      107        0        0        0        9        3        0    21.201       96     40.0    8.483   -9.900     2.28    0.000    0.000       11        9     2069  Maize_Short_Soroca_22May_Optimum_26_MPI.PRM
  Tot(90)       22        5     2070    247.5    459.7   1124.4   437.00      0.0    237.3     10.2      5.9      0.0    110.8       50    231.8    233.8      100     0.000     0.000     0.000     0.000      107        0        0        0       16        9        0    19.095       94     40.4    7.706   -9.900     2.25    0.000    0.000       11        9     2070  Maize_Short_Soroca_22May_Optimum_26_MPI.PRM
  Tot(91)       22        5     2071    306.7    475.5   1184.2   437.00      0.0    287.9     18.8      0.0      0.0    136.2       62    250.6    248.9      100     0.000     0.000     0.000     0.000      107        0        0        0       11        3        0    21.122       96     40.1    8.472   -9.900     2.19    0.000    0.000       11        9     2071  Maize_Short_Soroca_22May_Optimum_26_MPI.PRM
  Tot(92)       22        5     2072    173.8    544.2   1294.8   436.00      0.0    169.2      4.6      0.5      0.0    138.3       54    220.4    221.4       80     0.000     0.000     0.000     0.000      107        0        0        0        6       16       13    14.942       64     40.3    6.023   -9.900     1.68    0.000    0.000       11        9     2072  Maize_Short_Soroca_22May_Optimum_26_MPI.PRM
  Tot(93)       22        5     2073    121.5    547.4   1188.8   436.00      0.0    121.4      0.1      0.0      0.0    123.6       44    198.6    199.5       79     0.000     0.000     0.000     0.000      107        0        0        0       15       24       16    12.548       57     40.3    5.055   -9.900     1.57    0.000    0.000       11        9     2073  Maize_Short_Soroca_22May_Optimum_26_MPI.PRM
  Tot(94)       22        5     2074    243.8    486.4   1170.0   435.00      0.0    236.8      7.0      0.0      0.0    129.3       52    224.8    223.9       98     0.000     0.000     0.000     0.000      107        0        0        0       18       19        1    17.503       89     40.9    7.163   -9.900     2.02    0.000    0.000       11        9     2074  Maize_Short_Soroca_22May_Optimum_26_MPI.PRM
  Tot(95)       22        5     2075    350.0    461.9   1143.2   435.00      0.0    299.8     50.2      4.9      0.0    123.9       59    244.2    243.2      100     0.000     0.000     0.000     0.000      107        0        0        0       15        2        0    20.294       96     40.0    8.120   -9.900     2.21    0.000    0.000       11        9     2075  Maize_Short_Soroca_22May_Optimum_26_MPI.PRM
  Tot(96)       22        5     2076    183.2    462.0   1133.8   434.00      0.0    182.0      1.2      1.4      0.0    113.2       53    243.2    245.0      100     0.000     0.000     0.000     0.000      107        0        0        0       16        4        0    20.274       96     40.2    8.142   -9.900     2.29    0.000    0.000       11        9     2076  Maize_Short_Soroca_22May_Optimum_26_MPI.PRM
  Tot(97)       22        5     2077    197.9    528.1   1178.4   433.00      0.0    192.8      5.1      5.2      0.0    133.7       55    259.4    259.0       92     0.000     0.000     0.000     0.000      107        0        0        0       13        8        5    19.079       86     40.2    7.664   -9.900     1.95    0.000    0.000       11        9     2077  Maize_Short_Soroca_22May_Optimum_26_MPI.PRM
  Tot(98)       22        5     2078    207.6    449.6   1123.6   433.00      0.0    201.9      5.7      0.0      0.0    112.7       58    251.3    249.8      100     0.000     0.000     0.000     0.000      107        0        0        0       17       10        0    20.896       95     40.5    8.460   -9.900     2.32    0.000    0.000       11        9     2078  Maize_Short_Soroca_22May_Optimum_26_MPI.PRM
  Tot(99)       22        5     2079    328.3    397.6   1014.4   432.00      0.0    293.9     34.4     42.1      0.0    128.2       79    220.1    221.9      100     0.000     0.000     0.000     0.000      107        0        0        0       19        0        0    20.228       98     40.0    8.097   -9.900     2.32    0.000    0.000       11        9     2079  Maize_Short_Soroca_22May_Optimum_26_MPI.PRM
 Tot(100)       22        5     2080    201.9    493.2   1163.5   432.00      0.0    187.0     14.9     16.7      0.0    115.2       52    224.2    223.6       85     0.000     0.000     0.000     0.000      107        0        0        0       14       11       11    17.128       76     39.9    6.841   -9.900     2.02    0.000    0.000       11        9     2080  Maize_Short_Soroca_22May_Optimum_26_MPI.PRM
 Tot(101)       22        5     2081    178.4    522.4   1244.5   431.00      0.0    172.2      6.2     14.0      0.0    130.1       53    227.7    226.1       83     0.000     0.000     0.000     0.000      107        0        0        0       11       21       13    15.901       71     40.5    6.435   -9.900     1.80    0.000    0.000       11        9     2081  Maize_Short_Soroca_22May_Optimum_26_MPI.PRM
 Tot(102)       22        5     2082    180.7    449.4   1100.9   431.00      0.0    178.6      2.1      1.4      0.0    110.3       56    245.8    246.5       98     0.000     0.000     0.000     0.000      107        0        0        0       15        4        1    20.760       95     40.2    8.341   -9.900     2.34    0.000    0.000       11        9     2082  Maize_Short_Soroca_22May_Optimum_26_MPI.PRM
 Tot(103)       22        5     2083    209.7    509.2   1147.9   430.00      0.0    208.5      1.2      1.0      0.0    112.0       51    277.3    278.5       98     0.000     0.000     0.000     0.000      107        0        0        0       14        4        2    20.123       93     40.2    8.088   -9.900     2.08    0.000    0.000       11        9     2083  Maize_Short_Soroca_22May_Optimum_26_MPI.PRM
 Tot(104)       22        5     2084    317.7    420.0   1060.7   429.00      0.0    299.1     18.6     23.8      0.0    125.9       70    231.5    231.4      100     0.000     0.000     0.000     0.000      107        0        0        0       18        2        0    20.478       97     40.0    8.199   -9.900     2.29    0.000    0.000       11        9     2084  Maize_Short_Soroca_22May_Optimum_26_MPI.PRM
 Tot(105)       22        5     2085    202.0    477.9   1084.2   429.00      0.0    199.6      2.4      0.0      0.0     88.0       37    228.3    227.9      100     0.000     0.000     0.000     0.000      107        0        0        0       18        6        0    19.042       94     40.2    7.650   -9.900     2.42    0.000    0.000       11        9     2085  Maize_Short_Soroca_22May_Optimum_26_MPI.PRM
 Tot(106)       22        5     2086    172.2    483.9   1172.4   428.00      0.0    171.5      0.7      0.0      0.0    112.4       58    254.5    255.3       91     0.000     0.000     0.000     0.000      107        0        0        0       12        6        6    18.768       86     40.1    7.527   -9.900     2.05    0.000    0.000       11        9     2086  Maize_Short_Soroca_22May_Optimum_26_MPI.PRM
 Tot(107)       22        5     2087    260.5    440.4   1075.2   428.00      0.0    256.8      3.7      0.8      0.0    130.1       61    209.8    209.5      100     0.000     0.000     0.000     0.000      107        0        0        0       21        8        0    18.691       95     40.3    7.529   -9.900     2.22    0.000    0.000       11        9     2087  Maize_Short_Soroca_22May_Optimum_26_MPI.PRM
 Tot(108)       22        5     2088    164.2    493.6   1257.9   427.00      0.0    157.4      6.8      7.3      0.0    110.5       50    250.7    250.4       92     0.000     0.000     0.000     0.000      107        0        0        0       10        4        7    19.772       88     40.0    7.903   -9.900     2.19    0.000    0.000       11        9     2088  Maize_Short_Soroca_22May_Optimum_26_MPI.PRM
 Tot(109)       22        5     2089    240.8    435.0   1064.4   427.00      0.0    239.4      1.4      2.6      0.0    116.6       63    235.1    235.7      100     0.000     0.000     0.000     0.000      107        0        0        0       21        1        0    19.927       97     40.0    7.978   -9.900     2.27    0.000    0.000       11        9     2089  Maize_Short_Soroca_22May_Optimum_26_MPI.PRM
 Tot(110)       22        5     2090    242.4    452.0   1057.4   426.00      0.0    223.6     18.8      0.3      0.0    102.3       46    212.0    211.1      100     0.000     0.000     0.000     0.000      107        0        0        0       20        6        0    18.380       94     40.2    7.384   -9.900     2.35    0.000    0.000       11        9     2090  Maize_Short_Soroca_22May_Optimum_26_MPI.PRM
 Tot(111)       22        5     2091    179.0    533.3   1321.0   425.00      0.0    178.1      0.9      2.1      0.0    141.3       56    237.8    238.5       83     0.000     0.000     0.000     0.000      107        0        0        0        6       14       12    17.362       75     40.1    6.965   -9.900     1.84    0.000    0.000       11        9     2091  Maize_Short_Soroca_22May_Optimum_26_MPI.PRM
 Tot(112)       22        5     2092    307.2    408.6    995.4   425.00      0.0    292.2     15.0      4.6      0.0    133.9       68    192.9    192.8      100     0.000     0.000     0.000     0.000      107        0        0        0       24        4        0    18.217       96     40.1    7.310   -9.900     2.24    0.000    0.000       11        9     2092  Maize_Short_Soroca_22May_Optimum_26_MPI.PRM
 Tot(113)       22        5     2093    318.2    415.0   1049.6   424.00      0.0    301.5     16.7     17.1      0.0    131.8       76    228.1    228.2      100     0.000     0.000     0.000     0.000      107        0        0        0       18        1        0    20.065       97     40.1    8.042   -9.900     2.23    0.000    0.000       11        9     2093  Maize_Short_Soroca_22May_Optimum_26_MPI.PRM
 Tot(114)       22        5     2094    187.5    565.1   1323.5   424.00      0.0    181.0      6.5     10.3      0.0    129.0       53    258.6    257.9       80     0.000     0.000     0.000     0.000      107        0        0        0        8        8       15    16.572       71     39.9    6.605   -9.900     1.70    0.000    0.000       11        9     2094  Maize_Short_Soroca_22May_Optimum_26_MPI.PRM
 Tot(115)       22        5     2095    159.4    540.3   1239.0   423.00      0.0    159.4      0.0      0.0      0.0    115.0       37    220.2    220.3       92     0.000     0.000     0.000     0.000      107        0        0        0       11       29        5    15.996       74     40.9    6.537   -9.900     1.95    0.000    0.000       11        9     2095  Maize_Short_Soroca_22May_Optimum_26_MPI.PRM
 Tot(116)       22        5     2096    171.8    533.2   1256.4   423.00      0.0    171.1      0.7      0.0      0.0    122.6       51    259.5    259.0       87     0.000     0.000     0.000     0.000      107        0        0        0       10       16        9    18.218       78     40.6    7.395   -9.900     1.93    0.000    0.000       11        9     2096  Maize_Short_Soroca_22May_Optimum_26_MPI.PRM
 Tot(117)       22        5     2097    268.3    442.6   1143.8   422.00      0.0    250.7     17.6     18.4      0.0    136.0       77    261.4    260.0      100     0.000     0.000     0.000     0.000      107        0        0        0       14        1        0    21.656       98     40.1    8.678   -9.900     2.18    0.000    0.000       11        9     2097  Maize_Short_Soroca_22May_Optimum_26_MPI.PRM
 Tot(118)       22        5     2098    216.1    467.2   1148.9   422.00      0.0    212.7      3.4      5.5      0.0    143.5       73    253.8    253.9       99     0.000     0.000     0.000     0.000      107        0        0        0       14        1        1    20.560       96     40.0    8.234   -9.900     2.07    0.000    0.000       11        9     2098  Maize_Short_Soroca_22May_Optimum_26_MPI.PRM
 Tot(119)       22        5     2099    197.0    364.3    909.5   421.00      0.0    195.2      1.8      8.7      0.0    110.6       71    177.5    179.3      100     0.000     0.000     0.000     0.000      107        0        0        0       29        1        0    17.885       97     40.0    7.159   -9.900     2.48    0.000    0.000       11        9     2099  Maize_Short_Soroca_22May_Optimum_26_MPI.PRM
