AquaCrop 7.0 (August 2022) - Output created on (date) : 23-11-2022   at (time) : 11:43:37

    RunNr     Day1   Month1    Year1     Rain      ETo       GD     CO2      Irri   Infilt   Runoff    Drain   Upflow        E     E/Ex       Tr      TrW   Tr/Trx    SaltIn   SaltOut    SaltUp  SaltProf     Cycle   SaltStr  FertStr  WeedStr  TempStr   ExpStr   StoStr  BioMass  Brelative   HI    Y(dry)  Y(fresh)    WPet      Bin     Bout     DayN   MonthN    YearN
                                           mm       mm  degC.day    ppm        mm       mm       mm       mm       mm       mm        %       mm       mm        %    ton/ha    ton/ha    ton/ha    ton/ha      days       %        %        %        %        %        %    ton/ha        %       %    ton/ha   ton/ha    kg/m3   ton/ha   ton/ha
   Tot(1)        6        6     1981    179.0    479.2   1259.0   340.11      0.0    174.7      4.3      0.0      0.0    132.9       57    220.5    172.1       90     0.000     0.000     0.000     0.000      107        0       42       25       13       17        7    12.632       63     40.7    5.146   -9.900     1.46    0.000    0.000       26        9     1981  Maize_short_Cahul_6June_NonOptimum_85_NCC.PRM
   Tot(2)        6        6     1982    226.5    453.3   1300.2   341.22      0.0    224.6      1.9      0.0      0.0    156.5       76    260.5    202.3       99     0.000     0.000     0.000     0.000      107        0       42       25        6        2        1    16.687       74     40.1    6.696   -9.900     1.61    0.000    0.000       26        9     1982  Maize_short_Cahul_6June_NonOptimum_85_NCC.PRM
   Tot(3)        6        6     1983    282.8    466.4   1248.7   342.84      0.0    248.9     33.9     46.7      0.0    132.2       64    257.0    200.1       99     0.000     0.000     0.000     0.000      107        0       42       25        9        4        1    15.698       74     40.0    6.280   -9.900     1.61    0.000    0.000       26        9     1983  Maize_short_Cahul_6June_NonOptimum_85_NCC.PRM
   Tot(4)        6        6     1984    143.5    453.8   1166.3   344.40      0.0    140.3      3.2      4.9      0.0    123.3       58    220.8    171.5       91     0.000     0.000     0.000     0.000      107        0       42       25       11        9        9    13.921       65     40.2    5.600   -9.900     1.63    0.000    0.000       26        9     1984  Maize_short_Cahul_6June_NonOptimum_85_NCC.PRM
   Tot(5)        6        6     1985    324.4    461.9   1179.1   345.87      0.0    287.6     36.8     49.1      0.0    135.8       70    258.6    201.2       99     0.000     0.000     0.000     0.000      107        0       42       25       16        4        0    14.894       74     40.2    5.991   -9.900     1.52    0.000    0.000       26        9     1985  Maize_short_Cahul_6June_NonOptimum_85_NCC.PRM
   Tot(6)        6        6     1986    149.3    523.6   1330.5   347.19      0.0    143.2      6.1      7.2      0.0    118.6       48    231.7    181.9       83     0.000     0.000     0.000     0.000      107        0       42       25        8       15       14    12.336       57     40.4    4.979   -9.900     1.42    0.000    0.000       26        9     1986  Maize_short_Cahul_6June_NonOptimum_85_NCC.PRM
   Tot(7)        6        6     1987    210.0    499.3   1282.2   348.98      0.0    199.7     10.3      5.6      0.0    126.8       54    262.1    203.0       98     0.000     0.000     0.000     0.000      107        0       42       25        9        6        2    15.230       73     40.3    6.132   -9.900     1.58    0.000    0.000       26        9     1987  Maize_short_Cahul_6June_NonOptimum_85_NCC.PRM
   Tot(8)        6        6     1988    164.3    492.5   1317.1   351.45      0.0    154.4      9.9      0.0      0.0    107.7       41    206.4    164.1       87     0.000     0.000     0.000     0.000      107        0       42       25        9       24        8    11.594       55     40.7    4.724   -9.900     1.50    0.000    0.000       26        9     1988  Maize_short_Cahul_6June_NonOptimum_85_NCC.PRM
   Tot(9)        6        6     1989    263.2    446.7   1239.6   352.89      0.0    252.6     10.6      6.9      0.0    133.6       65    242.4    187.8      100     0.000     0.000     0.000     0.000      107        0       42       25       11        3        0    15.476       75     40.1    6.209   -9.900     1.65    0.000    0.000       26        9     1989  Maize_short_Cahul_6June_NonOptimum_85_NCC.PRM
  Tot(10)        6        6     1990    126.8    508.1   1226.1   354.16      0.0    126.2      0.6      0.0      0.0    119.2       45    208.6    165.6       87     0.000     0.000     0.000     0.000      107        0       42       25       13       18       13    11.418       58     40.4    4.618   -9.900     1.41    0.000    0.000       26        9     1990  Maize_short_Cahul_6June_NonOptimum_85_NCC.PRM
  Tot(11)        6        6     1991    222.0    443.1   1313.0   355.48      0.0    209.4     12.6     21.9      0.0    124.4       61    240.4    185.9      100     0.000     0.000     0.000     0.000      107        0       42       25        8        3        0    15.787       75     40.2    6.340   -9.900     1.74    0.000    0.000       26        9     1991  Maize_short_Cahul_6June_NonOptimum_85_NCC.PRM
  Tot(12)        6        6     1992    139.3    517.8   1313.1   356.27      0.0    135.9      3.4      6.6      0.0    123.4       48    211.3    168.5       82     0.000     0.000     0.000     0.000      107        0       42       25       10       22       15    10.907       52     40.5    4.422   -9.900     1.32    0.000    0.000       26        9     1992  Maize_short_Cahul_6June_NonOptimum_85_NCC.PRM
  Tot(13)        6        6     1993    141.0    501.0   1168.2   356.95      0.0    140.8      0.2      0.0      0.0    104.1       42    227.4    177.4       93     0.000     0.000     0.000     0.000      107        0       42       25       16       16        5    12.979       66     40.7    5.276   -9.900     1.59    0.000    0.000       26        9     1993  Maize_short_Cahul_6June_NonOptimum_85_NCC.PRM
  Tot(14)        6        6     1994    201.5    505.3   1432.3   358.63      0.0    160.3     41.2     32.0      0.0     90.1       36    252.3    197.9       90     0.000     0.000     0.000     0.000      107        0       42       25        3       18        8    14.469       62     40.7    5.885   -9.900     1.72    0.000    0.000       26        9     1994  Maize_short_Cahul_6June_NonOptimum_85_NCC.PRM
  Tot(15)        6        6     1995    191.4    495.2   1340.3   360.62      0.0    188.1      3.3      0.0      0.0    121.7       48    237.3    186.5       95     0.000     0.000     0.000     0.000      107        0       42       25        9       16        3    14.208       68     40.7    5.781   -9.900     1.61    0.000    0.000       26        9     1995  Maize_short_Cahul_6June_NonOptimum_85_NCC.PRM
  Tot(16)        6        6     1996    216.5    496.5   1218.6   362.37      0.0    188.4     28.1      0.0      0.0     84.8       28    192.8    153.3       97     0.000     0.000     0.000     0.000      107        0       42       25       17       27        1    11.832       63     40.9    4.840   -9.900     1.74    0.000    0.000       26        9     1996  Maize_short_Cahul_6June_NonOptimum_85_NCC.PRM
  Tot(17)        6        6     1997    374.7    437.8   1219.0   363.47      0.0    331.6     43.1     21.0      0.0    154.2       73    216.0    168.3      100     0.000     0.000     0.000     0.000      107        0       42       25       13        1        0    14.898       75     40.0    5.959   -9.900     1.61    0.000    0.000       26        9     1997  Maize_short_Cahul_6June_NonOptimum_85_NCC.PRM
  Tot(18)        6        6     1998    210.6    490.9   1290.8   366.50      0.0    202.8      7.8      2.7      0.0    137.5       57    216.7    170.1       88     0.000     0.000     0.000     0.000      107        0       42       25       11       22        7    12.094       58     40.7    4.927   -9.900     1.39    0.000    0.000       26        9     1998  Maize_short_Cahul_6June_NonOptimum_85_NCC.PRM
  Tot(19)        6        6     1999    276.9    515.7   1442.8   368.14      0.0    264.5     12.4     18.9      0.0    146.3       54    262.2    204.2      100     0.000     0.000     0.000     0.000      107        0       42       25        5       12        0    16.063       72     40.4    6.493   -9.900     1.59    0.000    0.000       26        9     1999  Maize_short_Cahul_6June_NonOptimum_85_NCC.PRM
  Tot(20)        6        6     2000    158.9    542.0   1294.7   369.41      0.0    148.1     10.8      0.0      0.0     98.1       31    203.4    163.5       85     0.000     0.000     0.000     0.000      107        0       42       25       12       25        8    10.948       52     40.7    4.458   -9.900     1.48    0.000    0.000       26        9     2000  Maize_short_Cahul_6June_NonOptimum_85_NCC.PRM
  Tot(21)        6        6     2001    221.7    527.9   1398.2   371.07      0.0    201.1     20.6      0.3      0.0    135.1       46    194.9    155.7       82     0.000     0.000     0.000     0.000      107        0       42       25        6       27       12    10.151       45     40.6    4.121   -9.900     1.25    0.000    0.000       26        9     2001  Maize_short_Cahul_6June_NonOptimum_85_NCC.PRM
  Tot(22)        6        6     2002    281.0    528.2   1422.2   373.16      0.0    245.2     35.8     12.8      0.0    108.3       38    260.4    202.4      100     0.000     0.000     0.000     0.000      107        0       42       25        6        5        0    15.877       72     40.0    6.351   -9.900     1.72    0.000    0.000       26        9     2002  Maize_short_Cahul_6June_NonOptimum_85_NCC.PRM
  Tot(23)        6        6     2003    140.3    548.0   1349.4   375.80      0.0    134.9      5.4      0.0      0.0    100.9       34    221.2    174.5       86     0.000     0.000     0.000     0.000      107        0       42       25        9       17       10    12.222       57     40.4    4.941   -9.900     1.53    0.000    0.000       26        9     2003  Maize_short_Cahul_6June_NonOptimum_85_NCC.PRM
  Tot(24)        6        6     2004    228.7    508.4   1288.8   377.49      0.0    221.5      7.2      3.7      0.0    113.5       45    258.8    200.7      100     0.000     0.000     0.000     0.000      107        0       42       25        9        6        0    15.613       73     40.2    6.270   -9.900     1.68    0.000    0.000       26        9     2004  Maize_short_Cahul_6June_NonOptimum_85_NCC.PRM
  Tot(25)        6        6     2005    352.7    506.6   1346.7   379.80      0.0    327.3     25.4     34.4      0.0    134.4       59    291.2    224.6      100     0.000     0.000     0.000     0.000      107        0       42       25        5        2        0    16.877       74     40.0    6.757   -9.900     1.59    0.000    0.000       26        9     2005  Maize_short_Cahul_6June_NonOptimum_85_NCC.PRM
  Tot(26)        6        6     2006    156.6    550.8   1344.7   381.90      0.0    154.3      2.3      0.0      0.0    113.1       36    238.3    190.8       93     0.000     0.000     0.000     0.000      107        0       42       25        6       24        5    13.397       60     40.6    5.444   -9.900     1.55    0.000    0.000       26        9     2006  Maize_short_Cahul_6June_NonOptimum_85_NCC.PRM
  Tot(27)        6        6     2007    159.1    626.4   1410.5   383.77      0.0    157.4      1.7      0.0      0.0    124.0       31    229.3    184.3       92     0.000     0.000     0.000     0.000      107        0       42       25        8       25        6    11.866       55     40.2    4.774   -9.900     1.35    0.000    0.000       26        9     2007  Maize_short_Cahul_6June_NonOptimum_85_NCC.PRM
  Tot(28)        6        6     2008    197.7    569.5   1367.7   385.59      0.0    188.2      9.5      0.0      0.0    129.2       43    217.9    172.8       80     0.000     0.000     0.000     0.000      107        0       42       25       12       19       12    10.811       53     40.3    4.359   -9.900     1.26    0.000    0.000       26        9     2008  Maize_short_Cahul_6June_NonOptimum_85_NCC.PRM
  Tot(29)        6        6     2009    176.3    588.9   1438.2   387.37      0.0    169.3      7.0      0.0      0.0    132.6       41    237.0    187.7       86     0.000     0.000     0.000     0.000      107        0       42       25        4       23       12    12.101       52     40.6    4.910   -9.900     1.33    0.000    0.000       26        9     2009  Maize_short_Cahul_6June_NonOptimum_85_NCC.PRM
  Tot(30)        6        6     2010    247.1    521.6   1434.9   389.85      0.0    228.6     18.5     34.5      0.0    144.4       58    242.2    189.5       87     0.000     0.000     0.000     0.000      107        0       42       25        7       15        9    13.350       60     40.6    5.418   -9.900     1.40    0.000    0.000       26        9     2010  Maize_short_Cahul_6June_NonOptimum_85_NCC.PRM
  Tot(31)        6        6     2011    144.1    558.1   1426.3   391.63      0.0    132.7     11.4     12.7      0.0    119.0       40    215.7    171.5       81     0.000     0.000     0.000     0.000      104        0       42       25        3       20       18    10.932       46     40.0    4.370   -9.900     1.31    0.000    0.000       26        9     2011  Maize_short_Cahul_6June_NonOptimum_85_NCC.PRM
  Tot(32)        6        6     2012    172.7    628.8   1504.7   393.82      0.0    166.6      6.1      6.3      0.0    136.7       36    225.7    180.3       82     0.000     0.000     0.000     0.000      107        0       42       25        3       30       14    10.719       46     40.3    4.319   -9.900     1.19    0.000    0.000       26        9     2012  Maize_short_Cahul_6June_NonOptimum_85_NCC.PRM
  Tot(33)        6        6     2013    278.4    535.9   1388.7   396.48      0.0    252.5     25.9     25.8      0.0    138.7       51    237.0    186.7       89     0.000     0.000     0.000     0.000      107        0       42       25        8       19        6    13.333       61     40.7    5.431   -9.900     1.45    0.000    0.000       26        9     2013  Maize_short_Cahul_6June_NonOptimum_85_NCC.PRM
  Tot(34)        6        6     2014    153.0    567.9   1422.4   398.55      0.0    152.8      0.2      0.0      0.0    140.1       49    227.5    180.3       79     0.000     0.000     0.000     0.000      107        0       42       25        6       23       20    11.308       50     39.8    4.503   -9.900     1.23    0.000    0.000       26        9     2014  Maize_short_Cahul_6June_NonOptimum_85_NCC.PRM
  Tot(35)        6        6     2015    140.8    604.0   1480.5   402.00      0.0    138.4      2.4      0.1      0.0    131.6       39    216.5    172.7       78     0.000     0.000     0.000     0.000      107        0       42       25        3       29       19    10.432       44     40.3    4.205   -9.900     1.21    0.000    0.000       26        9     2015  Maize_short_Cahul_6June_NonOptimum_85_NCC.PRM
  Tot(36)        6        6     2016    168.2    577.0   1458.2   404.00      0.0    155.6     12.6      0.1      0.0    129.7       38    195.0    156.2       81     0.000     0.000     0.000     0.000      107        0       42       25        7       28       16     9.600       43     40.3    3.869   -9.900     1.19    0.000    0.000       26        9     2016  Maize_short_Cahul_6June_NonOptimum_85_NCC.PRM
  Tot(37)        6        6     2017    233.5    561.6   1453.7   407.00      0.0    202.3     31.2      8.2      0.0    137.4       53    277.3    215.7       88     0.000     0.000     0.000     0.000      107        0       42       25        4        6       13    14.292       61     39.7    5.672   -9.900     1.37    0.000    0.000       26        9     2017  Maize_short_Cahul_6June_NonOptimum_85_NCC.PRM
  Tot(38)        6        6     2018    165.7    536.5   1498.9   410.00      0.0    161.3      4.4      0.0      0.0    114.1       46    258.3    201.3       87     0.000     0.000     0.000     0.000      107        0       42       25        4        5       13    14.035       60     39.8    5.583   -9.900     1.50    0.000    0.000       26        9     2018  Maize_short_Cahul_6June_NonOptimum_85_NCC.PRM
  Tot(39)        6        6     2019    147.0    605.5   1482.4   413.00      0.0    144.2      2.8      0.6      0.0    137.9       39    196.3    155.7       78     0.000     0.000     0.000     0.000       98        0       42       25        1       22       19     9.650       42     34.8    3.360   -9.900     1.02    0.000    0.000       26        9     2019  Maize_short_Cahul_6June_NonOptimum_85_NCC.PRM
  Tot(40)        6        6     2020     64.5    581.0   1337.8   416.00      0.0     64.5      0.0      0.0      0.0     96.0       27    178.5    142.7       78     0.000     0.000     0.000     0.000       96        0       42       25        3       27       18     8.766       41     33.1    2.901   -9.900     1.06    0.000    0.000       26        9     2020  Maize_short_Cahul_6June_NonOptimum_85_NCC.PRM
  Tot(41)        6        6     2021    120.6    562.7   1307.2   419.00      0.0    116.5      4.1      2.2      0.0    129.0       40    190.9    152.0       81     0.000     0.000     0.000     0.000       97        0       42       25        5       28       18     9.094       41     34.2    3.114   -9.900     0.98    0.000    0.000       26        9     2021  Maize_short_Cahul_6June_NonOptimum_85_NCC.PRM
  Tot(42)        6        6     2022    120.9    471.9   1129.6   422.00      0.0    120.7      0.2      0.0      0.0    109.4       48    200.3    157.1       88     0.000     0.000     0.000     0.000      107        0       42       25       17       17       10    11.817       59     40.6    4.803   -9.900     1.55    0.000    0.000       26        9     2022  Maize_short_Cahul_6June_NonOptimum_85_NCC.PRM
  Tot(43)        6        6     2023    140.6    504.3   1112.9   425.00      0.0    125.0     15.6      0.5      0.0     85.4       32    215.2    170.9       99     0.000     0.000     0.000     0.000      107        0       42       25       20       24        1    12.443       66     40.6    5.046   -9.900     1.68    0.000    0.000       26        9     2023  Maize_short_Cahul_6June_NonOptimum_85_NCC.PRM
  Tot(44)        6        6     2024     71.7    599.2   1382.8   428.00      0.0     71.4      0.3      0.0      0.0     96.3       24    164.1    132.9       80     0.000     0.000     0.000     0.000       94        0       42       25        4       34       17     7.455       34     30.3    2.260   -9.900     0.88    0.000    0.000       26        9     2024  Maize_short_Cahul_6June_NonOptimum_85_NCC.PRM
  Tot(45)        6        6     2025    123.4    539.1   1312.1   431.00      0.0    122.6      0.8      0.0      0.0    139.9       46    190.4    152.0       82     0.000     0.000     0.000     0.000      100        0       42       25        5       28       17     9.714       42     37.4    3.633   -9.900     1.11    0.000    0.000       26        9     2025  Maize_short_Cahul_6June_NonOptimum_85_NCC.PRM
  Tot(46)        6        6     2026    432.7    430.6   1080.6   435.00      0.0    277.2    155.5    119.6      0.0    125.3       67    223.9    172.0       99     0.000     0.000     0.000     0.000      107        0       42       25       17        2        2    15.759       75     40.1    6.321   -9.900     1.81    0.000    0.000       26        9     2026  Maize_short_Cahul_6June_NonOptimum_85_NCC.PRM
  Tot(47)        6        6     2027     40.9    539.2   1257.0   438.00      0.0     40.9      0.0      0.0      0.0     71.5       23    176.3    141.7       79     0.000     0.000     0.000     0.000       98        0       42       25        9       27       18     9.302       41     35.2    3.270   -9.900     1.34    0.000    0.000       26        9     2027  Maize_short_Cahul_6June_NonOptimum_85_NCC.PRM
  Tot(48)        6        6     2028     70.4    595.6   1360.7   442.00      0.0     64.5      5.9      6.5      0.0     91.5       24    165.1    132.6       76     0.000     0.000     0.000     0.000       91        0       42       25        3       31       18     7.541       33     28.2    2.123   -9.900     0.83    0.000    0.000       26        9     2028  Maize_short_Cahul_6June_NonOptimum_85_NCC.PRM
  Tot(49)        6        6     2029     53.9    594.9   1320.9   445.00      0.0     53.9      0.0      0.0      0.0     86.4       23    166.1    133.9       78     0.000     0.000     0.000     0.000       95        0       42       25        7       32       18     7.900       36     32.3    2.549   -9.900     1.07    0.000    0.000       26        9     2029  Maize_short_Cahul_6June_NonOptimum_85_NCC.PRM
  Tot(50)        6        6     2030     48.5    653.8   1489.4   449.00      0.0     48.5      0.0      0.5      0.0     75.3       16    158.2    129.6       81     0.000     0.000     0.000     0.000       96        0       42       25        2       38       16     6.981       30     33.4    2.331   -9.900     1.03    0.000    0.000       26        9     2030  Maize_short_Cahul_6June_NonOptimum_85_NCC.PRM
  Tot(51)        6        6     2031     40.8    568.3   1251.0   452.00      0.0     40.5      0.3      0.0      0.0     76.4       22    165.0    132.6       79     0.000     0.000     0.000     0.000       96        0       42       25        8       31       17     8.010       37     33.3    2.669   -9.900     1.11    0.000    0.000       26        9     2031  Maize_short_Cahul_6June_NonOptimum_85_NCC.PRM
  Tot(52)        6        6     2032     45.6    591.4   1332.5   456.00      0.0     45.5      0.1      0.0      0.0     76.3       20    166.6    134.6       81     0.000     0.000     0.000     0.000      104        0       42       25       11       33       16     8.053       39     40.6    3.270   -9.900     1.35    0.000    0.000       26        9     2032  Maize_short_Cahul_6June_NonOptimum_85_NCC.PRM
  Tot(53)        6        6     2033     33.7    616.0   1393.6   460.00      0.0     33.7      0.0      0.0      0.0     72.8       18    162.3    131.1       78     0.000     0.000     0.000     0.000       93        0       42       25        4       32       18     7.611       33     30.2    2.299   -9.900     1.01    0.000    0.000       26        9     2033  Maize_short_Cahul_6June_NonOptimum_85_NCC.PRM
  Tot(54)        6        6     2034     85.0    506.6   1241.1   464.00      0.0     84.7      0.3      0.0      0.0     91.0       34    205.1    162.0       90     0.000     0.000     0.000     0.000      107        0       42       25       13       19       12    12.474       58     40.3    5.032   -9.900     1.70    0.000    0.000       26        9     2034  Maize_short_Cahul_6June_NonOptimum_85_NCC.PRM
  Tot(55)        6        6     2035     47.7    597.1   1383.5   468.00      0.0     47.1      0.6      0.0      0.0     79.5       22    172.4    137.9       75     0.000     0.000     0.000     0.000       92        0       42       25        7       27       19     8.252       35     29.3    2.419   -9.900     0.97    0.000    0.000       26        9     2035  Maize_short_Cahul_6June_NonOptimum_85_NCC.PRM
  Tot(56)        6        6     2036    182.9    488.9   1154.7   472.00      0.0    170.8     12.1     16.5      0.0    125.8       56    218.9    170.6       91     0.000     0.000     0.000     0.000      107        0       42       25       20       10        6    12.975       65     40.4    5.244   -9.900     1.52    0.000    0.000       26        9     2036  Maize_short_Cahul_6June_NonOptimum_85_NCC.PRM
  Tot(57)        6        6     2037     91.3    585.0   1437.3   476.00      0.0     91.2      0.1      0.0      0.0    103.4       29    187.1    150.4       82     0.000     0.000     0.000     0.000      107        0       42       25        6       30       14     9.850       42     40.6    3.996   -9.900     1.38    0.000    0.000       26        9     2037  Maize_short_Cahul_6June_NonOptimum_85_NCC.PRM
  Tot(58)        6        6     2038     72.1    629.2   1477.0   481.00      0.0     72.0      0.1      0.0      0.0     98.7       24    162.7    131.3       76     0.000     0.000     0.000     0.000       91        0       42       25        1       32       18     7.493       31     28.1    2.107   -9.900     0.82    0.000    0.000       26        9     2038  Maize_short_Cahul_6June_NonOptimum_85_NCC.PRM
  Tot(59)        6        6     2039     86.4    586.7   1373.5   485.00      0.0     86.4      0.0      0.0      0.0    100.2       27    170.1    136.5       79     0.000     0.000     0.000     0.000       96        0       42       25        5       30       18     8.539       37     33.2    2.837   -9.900     1.06    0.000    0.000       26        9     2039  Maize_short_Cahul_6June_NonOptimum_85_NCC.PRM
  Tot(60)        6        6     2040     82.2    578.4   1347.8   489.00      0.0     82.2      0.0      0.0      0.0    107.8       31    170.5    136.8       77     0.000     0.000     0.000     0.000       99        0       42       25        5       30       17     8.388       37     36.3    3.048   -9.900     1.10    0.000    0.000       26        9     2040  Maize_short_Cahul_6June_NonOptimum_85_NCC.PRM
  Tot(61)        6        6     2041    165.3    538.3   1321.8   494.00      0.0    153.7     11.6     20.2      0.0    150.9       56    194.5    153.1       79     0.000     0.000     0.000     0.000       97        0       42       25        5       19       19    10.178       43     34.2    3.479   -9.900     1.02    0.000    0.000       26        9     2041  Maize_short_Cahul_6June_NonOptimum_85_NCC.PRM
  Tot(62)        6        6     2042     13.8    686.8   1573.9   499.00      0.0     13.8      0.0      0.0      0.0     54.1       11    154.1    125.8       79     0.000     0.000     0.000     0.000       95        0       42       25        2       37       16     6.725       28     32.4    2.178   -9.900     1.05    0.000    0.000       26        9     2042  Maize_short_Cahul_6June_NonOptimum_85_NCC.PRM
  Tot(63)        6        6     2043    117.5    550.6   1404.5   504.00      0.0    116.1      1.4      0.0      0.0     95.3       31    208.0    165.2       82     0.000     0.000     0.000     0.000      107        0       42       25        7       23       14    12.248       52     40.1    4.910   -9.900     1.62    0.000    0.000       26        9     2043  Maize_short_Cahul_6June_NonOptimum_85_NCC.PRM
  Tot(64)        6        6     2044    105.8    533.3   1250.4   508.00      0.0    104.6      1.2      1.8      0.0    122.4       40    176.0    140.5       81     0.000     0.000     0.000     0.000      107        0       42       25       15       28       16     9.347       45     40.5    3.788   -9.900     1.27    0.000    0.000       26        9     2044  Maize_short_Cahul_6June_NonOptimum_85_NCC.PRM
  Tot(65)        6        6     2045     93.0    574.0   1322.6   513.00      0.0     92.8      0.2      0.0      0.0    115.4       34    177.0    142.0       80     0.000     0.000     0.000     0.000      103        0       42       25        9       31       17     8.943       41     40.5    3.623   -9.900     1.24    0.000    0.000       26        9     2045  Maize_short_Cahul_6June_NonOptimum_85_NCC.PRM
  Tot(66)        6        6     2046     50.5    589.8   1391.0   519.00      0.0     50.0      0.5      0.2      0.0     74.2       20    167.1    134.1       77     0.000     0.000     0.000     0.000       94        0       42       25        5       29       18     8.328       37     31.1    2.592   -9.900     1.09    0.000    0.000       26        9     2046  Maize_short_Cahul_6June_NonOptimum_85_NCC.PRM
  Tot(67)        6        6     2047     38.2    559.8   1333.6   524.00      0.0     38.2      0.0      0.0      0.0     70.9       22    174.4    139.3       79     0.000     0.000     0.000     0.000       97        0       42       25        6       28       18     9.304       41     34.2    3.178   -9.900     1.31    0.000    0.000       26        9     2047  Maize_short_Cahul_6June_NonOptimum_85_NCC.PRM
  Tot(68)        6        6     2048    106.9    597.9   1405.2   529.00      0.0     82.9     24.0     33.2      0.0     82.9       23    166.4    133.6       77     0.000     0.000     0.000     0.000       91        0       42       25        6       31       19     7.842       32     28.1    2.206   -9.900     0.89    0.000    0.000       26        9     2048  Maize_short_Cahul_6June_NonOptimum_85_NCC.PRM
  Tot(69)        6        6     2049     63.1    531.4   1303.6   535.00      0.0     62.1      1.0      0.9      0.0     85.9       29    186.0    147.8       82     0.000     0.000     0.000     0.000      103        0       42       25        7       23       17    10.779       47     40.2    4.330   -9.900     1.60    0.000    0.000       26        9     2049  Maize_short_Cahul_6June_NonOptimum_85_NCC.PRM
  Tot(70)        6        6     2050    119.1    488.7   1259.5   541.00      0.0    115.2      3.9      0.0      0.0     98.6       39    196.0    154.8       85     0.000     0.000     0.000     0.000      107        0       42       25       10       21       11    12.249       56     40.5    4.961   -9.900     1.68    0.000    0.000       26        9     2050  Maize_short_Cahul_6June_NonOptimum_85_NCC.PRM
  Tot(71)        6        6     2051    226.9    451.4   1198.7   546.00      0.0    213.3     13.6     10.4      0.0    146.3       77    242.2    185.8      100     0.000     0.000     0.000     0.000      107        0       42       25       12        1        0    16.764       75     40.0    6.713   -9.900     1.73    0.000    0.000       26        9     2051  Maize_short_Cahul_6June_NonOptimum_85_NCC.PRM
  Tot(72)        6        6     2052     55.5    632.3   1577.7   552.00      0.0     55.5      0.0      0.0      0.0     87.2       21    169.4    138.1       78     0.000     0.000     0.000     0.000       94        0       42       25        1       31       18     8.042       32     31.4    2.526   -9.900     1.00    0.000    0.000       26        9     2052  Maize_short_Cahul_6June_NonOptimum_85_NCC.PRM
  Tot(73)        6        6     2053    129.2    525.7   1353.0   558.00      0.0    121.6      7.6     14.9      0.0    113.8       40    190.6    151.2       81     0.000     0.000     0.000     0.000      100        0       42       25        4       25       18    10.462       44     37.2    3.897   -9.900     1.32    0.000    0.000       26        9     2053  Maize_short_Cahul_6June_NonOptimum_85_NCC.PRM
  Tot(74)        6        6     2054     76.9    576.0   1424.3   564.00      0.0     76.2      0.7      0.0      0.0    106.4       32    178.8    142.6       78     0.000     0.000     0.000     0.000       95        0       42       25        2       28       18     9.353       38     32.3    3.023   -9.900     1.07    0.000    0.000       26        9     2054  Maize_short_Cahul_6June_NonOptimum_85_NCC.PRM
  Tot(75)        6        6     2055    106.2    558.9   1266.4   571.00      0.0    100.3      5.9      4.2      0.0    121.6       38    182.5    144.8       81     0.000     0.000     0.000     0.000       99        0       42       25        6       24       18    10.032       45     36.3    3.637   -9.900     1.20    0.000    0.000       26        9     2055  Maize_short_Cahul_6June_NonOptimum_85_NCC.PRM
  Tot(76)        6        6     2056     51.9    675.9   1613.0   577.00      0.0     51.9      0.0      0.0      0.0     83.5       17    155.5    127.4       81     0.000     0.000     0.000     0.000       98        0       42       25        3       38       16     6.896       28     34.5    2.376   -9.900     1.00    0.000    0.000       26        9     2056  Maize_short_Cahul_6June_NonOptimum_85_NCC.PRM
  Tot(77)        6        6     2057    125.4    574.3   1446.3   583.00      0.0    115.3     10.1     13.2      0.0    120.9       39    194.2    153.5       79     0.000     0.000     0.000     0.000       98        0       42       25        3       22       19    10.142       43     35.0    3.552   -9.900     1.13    0.000    0.000       26        9     2057  Maize_short_Cahul_6June_NonOptimum_85_NCC.PRM
  Tot(78)        6        6     2058     44.0    637.2   1458.4   590.00      0.0     43.0      1.0      0.1      0.0     77.7       19    159.9    129.3       76     0.000     0.000     0.000     0.000       89        0       42       25        3       34       18     7.212       29     26.1    1.881   -9.900     0.81    0.000    0.000       26        9     2058  Maize_short_Cahul_6June_NonOptimum_85_NCC.PRM
  Tot(79)        6        6     2059     53.8    635.8   1510.9   597.00      0.0     53.8      0.0      0.0      0.0     89.5       22    163.0    131.3       76     0.000     0.000     0.000     0.000       92        0       42       25        1       33       18     7.371       30     29.2    2.150   -9.900     0.90    0.000    0.000       26        9     2059  Maize_short_Cahul_6June_NonOptimum_85_NCC.PRM
  Tot(80)        6        6     2060    166.4    471.8   1191.0   604.00      0.0    157.3      9.1     12.9      0.0    102.4       49    221.0    171.4       91     0.000     0.000     0.000     0.000      107        0       42       25       12        6        7    14.656       65     40.1    5.883   -9.900     1.82    0.000    0.000       26        9     2060  Maize_short_Cahul_6June_NonOptimum_85_NCC.PRM
  Tot(81)        6        6     2061     92.7    582.3   1390.9   611.00      0.0     91.6      1.1      3.9      0.0     96.5       29    193.0    154.5       80     0.000     0.000     0.000     0.000      107        0       42       25        6       27       16    10.134       42     40.4    4.094   -9.900     1.41    0.000    0.000       26        9     2061  Maize_short_Cahul_6June_NonOptimum_85_NCC.PRM
  Tot(82)        6        6     2062     45.6    647.1   1498.8   618.00      0.0     45.6      0.0      0.0      0.0     84.3       20    161.0    130.2       75     0.000     0.000     0.000     0.000       91        0       42       25        3       33       18     7.438       31     28.1    2.090   -9.900     0.89    0.000    0.000       26        9     2062  Maize_short_Cahul_6June_NonOptimum_85_NCC.PRM
  Tot(83)        6        6     2063     22.8    659.4   1535.4   625.00      0.0     22.2      0.6      2.0      0.0     60.2       14    162.3    131.7       78     0.000     0.000     0.000     0.000       94        0       42       25        1       33       17     7.728       31     31.2    2.411   -9.900     1.09    0.000    0.000       26        9     2063  Maize_short_Cahul_6June_NonOptimum_85_NCC.PRM
  Tot(84)        6        6     2064     40.3    634.1   1548.6   632.00      0.0     40.3      0.0      0.0      0.0     75.5       19    163.7    132.0       77     0.000     0.000     0.000     0.000       91        0       42       25        4       33       18     7.559       30     28.5    2.152   -9.900     0.91    0.000    0.000       26        9     2064  Maize_short_Cahul_6June_NonOptimum_85_NCC.PRM
  Tot(85)        6        6     2065    137.6    628.5   1536.2   639.00      0.0    121.6     16.0     22.3      0.0    128.7       35    176.6    141.1       77     0.000     0.000     0.000     0.000       93        0       42       25        1       28       19     8.832       35     30.0    2.652   -9.900     0.87    0.000    0.000       26        9     2065  Maize_short_Cahul_6June_NonOptimum_85_NCC.PRM
  Tot(86)        6        6     2066     15.4    682.2   1622.3   647.00      0.0     15.4      0.0      0.0      0.0     55.2       12    156.2    127.1       78     0.000     0.000     0.000     0.000       93        0       42       25        0       36       17     7.028       29     30.3    2.133   -9.900     1.01    0.000    0.000       26        9     2066  Maize_short_Cahul_6June_NonOptimum_85_NCC.PRM
  Tot(87)        6        6     2067     80.0    671.7   1613.0   654.00      0.0     79.2      0.8      0.0      0.0     87.3       19    161.5    131.1       78     0.000     0.000     0.000     0.000       93        0       42       25        1       35       17     7.328       31     30.2    2.215   -9.900     0.94    0.000    0.000       26        9     2067  Maize_short_Cahul_6June_NonOptimum_85_NCC.PRM
  Tot(88)        6        6     2068     43.0    634.9   1514.9   662.00      0.0     42.9      0.1      0.0      0.0     80.8       20    165.7    133.4       78     0.000     0.000     0.000     0.000       94        0       42       25        3       31       18     8.298       34     31.4    2.607   -9.900     1.07    0.000    0.000       26        9     2068  Maize_short_Cahul_6June_NonOptimum_85_NCC.PRM
  Tot(89)        6        6     2069     98.2    555.2   1403.3   669.00      0.0     97.7      0.5      0.0      0.0     92.3       31    191.4    151.6       81     0.000     0.000     0.000     0.000      102        0       42       25        3       21       18    10.883       45     39.0    4.245   -9.900     1.52    0.000    0.000       26        9     2069  Maize_short_Cahul_6June_NonOptimum_85_NCC.PRM
  Tot(90)        6        6     2070     54.9    608.3   1495.1   677.00      0.0     54.9      0.0      0.0      0.0     83.1       22    173.3    139.1       79     0.000     0.000     0.000     0.000       97        0       42       25        2       30       18     8.625       36     34.3    2.959   -9.900     1.16    0.000    0.000       26        9     2070  Maize_short_Cahul_6June_NonOptimum_85_NCC.PRM
  Tot(91)        6        6     2071    104.9    597.9   1556.4   685.00      0.0     95.1      9.8      5.1      0.0    103.6       29    188.2    149.7       81     0.000     0.000     0.000     0.000       99        0       42       25        1       27       18     9.844       40     36.2    3.565   -9.900     1.25    0.000    0.000       26        9     2071  Maize_short_Cahul_6June_NonOptimum_85_NCC.PRM
  Tot(92)        6        6     2072    153.3    535.3   1446.4   693.00      0.0    139.3     14.0     27.1      0.0    114.6       43    214.2    168.5       83     0.000     0.000     0.000     0.000      107        0       42       25        5       18       15    13.151       55     40.3    5.294   -9.900     1.61    0.000    0.000       26        9     2072  Maize_short_Cahul_6June_NonOptimum_85_NCC.PRM
  Tot(93)        6        6     2073     55.3    582.1   1520.6   701.00      0.0     50.0      5.3      4.6      0.0     80.4       22    166.9    134.7       81     0.000     0.000     0.000     0.000      100        0       42       25        3       32       17     8.972       36     37.5    3.362   -9.900     1.36    0.000    0.000       26        9     2073  Maize_short_Cahul_6June_NonOptimum_85_NCC.PRM
  Tot(94)        6        6     2074     53.4    695.1   1695.8   709.00      0.0     53.3      0.1      0.0      0.0     94.8       19    160.9    131.6       83     0.000     0.000     0.000     0.000       99        0       42       25        0       37       16     7.804       32     36.5    2.845   -9.900     1.11    0.000    0.000       26        9     2074  Maize_short_Cahul_6June_NonOptimum_85_NCC.PRM
  Tot(95)        6        6     2075     35.9    643.7   1577.3   717.00      0.0     35.9      0.0      0.0      0.0     74.8       17    164.2    132.9       80     0.000     0.000     0.000     0.000       98        0       42       25        1       32       16     8.450       34     35.3    2.986   -9.900     1.26    0.000    0.000       26        9     2075  Maize_short_Cahul_6June_NonOptimum_85_NCC.PRM
  Tot(96)        6        6     2076    103.4    582.3   1517.0   725.00      0.0     98.7      4.7      8.3      0.0    114.5       35    181.6    144.1       78     0.000     0.000     0.000     0.000       96        0       42       25        2       26       18     9.395       38     33.2    3.116   -9.900     1.06    0.000    0.000       26        9     2076  Maize_short_Cahul_6June_NonOptimum_85_NCC.PRM
  Tot(97)        6        6     2077     94.1    640.1   1581.9   733.00      0.0     90.7      3.4      0.0      0.0     90.4       21    169.1    137.0       80     0.000     0.000     0.000     0.000      107        0       42       25        3       36       12     8.150       34     40.6    3.307   -9.900     1.27    0.000    0.000       26        9     2077  Maize_short_Cahul_6June_NonOptimum_85_NCC.PRM
  Tot(98)        6        6     2078     34.9    667.6   1618.5   742.00      0.0     34.8      0.1      0.0      0.0     68.5       15    161.4    131.3       80     0.000     0.000     0.000     0.000       96        0       42       25        2       34       17     7.770       32     33.4    2.593   -9.900     1.16    0.000    0.000       26        9     2078  Maize_short_Cahul_6June_NonOptimum_85_NCC.PRM
  Tot(99)        6        6     2079     82.3    584.2   1548.2   750.00      0.0     82.2      0.1      0.0      0.0     94.2       26    171.8    138.0       81     0.000     0.000     0.000     0.000       99        0       42       25        3       30       17     9.227       39     36.3    3.353   -9.900     1.32    0.000    0.000       26        9     2079  Maize_short_Cahul_6June_NonOptimum_85_NCC.PRM
 Tot(100)        6        6     2080     44.9    598.3   1497.2   758.00      0.0     44.6      0.3      0.0      0.0     78.0       22    175.2    140.2       81     0.000     0.000     0.000     0.000       99        0       42       25        1       29       17     9.586       39     36.2    3.474   -9.900     1.38    0.000    0.000       26        9     2080  Maize_short_Cahul_6June_NonOptimum_85_NCC.PRM
 Tot(101)        6        6     2081     50.5    625.7   1508.8   767.00      0.0     50.3      0.2      0.0      0.0     79.2       19    161.4    131.1       81     0.000     0.000     0.000     0.000      107        0       42       25        6       35       16     8.009       34     40.6    3.249   -9.900     1.35    0.000    0.000       26        9     2081  Maize_short_Cahul_6June_NonOptimum_85_NCC.PRM
 Tot(102)        6        6     2082    141.2    535.9   1490.1   775.00      0.0    134.2      7.0      5.0      0.0    103.5       41    241.9    189.7       90     0.000     0.000     0.000     0.000      107        0       42       25        3       11       10    14.948       62     39.9    5.961   -9.900     1.73    0.000    0.000       26        9     2082  Maize_short_Cahul_6June_NonOptimum_85_NCC.PRM
 Tot(103)        6        6     2083     59.7    615.9   1585.5   784.00      0.0     59.7      0.0      0.0      0.0     88.9       23    177.5    143.1       82     0.000     0.000     0.000     0.000       99        0       42       25        1       32       17     9.209       39     36.3    3.347   -9.900     1.27    0.000    0.000       26        9     2083  Maize_short_Cahul_6June_NonOptimum_85_NCC.PRM
 Tot(104)        6        6     2084     78.3    563.6   1503.4   792.00      0.0     77.7      0.6      0.0      0.0     83.3       31    213.8    166.8       81     0.000     0.000     0.000     0.000      107        0       42       25        2       11       18    12.192       50     39.5    4.819   -9.900     1.62    0.000    0.000       26        9     2084  Maize_short_Cahul_6June_NonOptimum_85_NCC.PRM
 Tot(105)        6        6     2085     21.6    715.5   1750.4   801.00      0.0     21.6      0.0      0.0      0.0     64.6       12    156.6    127.7       81     0.000     0.000     0.000     0.000      107        0       42       25        1       37       20     7.442       31     35.3    2.623   -9.900     1.19    0.000    0.000       26        9     2085  Maize_short_Cahul_6June_NonOptimum_85_NCC.PRM
 Tot(106)        6        6     2086     81.3    563.7   1446.8   810.00      0.0     81.3      0.0      0.0      0.0     94.5       32    189.2    148.9       80     0.000     0.000     0.000     0.000      103        0       42       25        6       17       18    10.545       48     40.1    4.232   -9.900     1.50    0.000    0.000       26        9     2086  Maize_short_Cahul_6June_NonOptimum_85_NCC.PRM
 Tot(107)        6        6     2087    108.6    591.0   1499.6   818.00      0.0    102.4      6.2     14.6      0.0    113.4       35    183.5    145.9       78     0.000     0.000     0.000     0.000       96        0       42       25        4       25       18     9.464       39     33.1    3.133   -9.900     1.06    0.000    0.000       26        9     2087  Maize_short_Cahul_6June_NonOptimum_85_NCC.PRM
 Tot(108)        6        6     2088     36.0    655.4   1672.6   827.00      0.0     36.0      0.0      0.0      0.0     75.7       17    161.3    131.1       81     0.000     0.000     0.000     0.000       96        0       42       25        0       35       17     7.749       33     33.3    2.583   -9.900     1.10    0.000    0.000       26        9     2088  Maize_short_Cahul_6June_NonOptimum_85_NCC.PRM
 Tot(109)        6        6     2089     40.1    707.0   1654.4   836.00      0.0     40.1      0.0      0.0      0.0     81.4       17    161.5    130.8       78     0.000     0.000     0.000     0.000       94        0       42       25        0       34       17     7.544       31     31.4    2.371   -9.900     0.99    0.000    0.000       26        9     2089  Maize_short_Cahul_6June_NonOptimum_85_NCC.PRM
 Tot(110)        6        6     2090     39.9    664.3   1639.6   845.00      0.0     39.9      0.0      0.0      0.0     80.1       18    162.2    131.0       80     0.000     0.000     0.000     0.000       98        0       42       25        2       33       17     8.015       34     35.4    2.836   -9.900     1.19    0.000    0.000       26        9     2090  Maize_short_Cahul_6June_NonOptimum_85_NCC.PRM
 Tot(111)        6        6     2091     67.5    595.2   1650.1   854.00      0.0     66.9      0.6      0.0      0.0     94.8       29    182.9    145.0       80     0.000     0.000     0.000     0.000       99        0       42       25        1       23       18     9.957       41     36.2    3.600   -9.900     1.30    0.000    0.000       26        9     2091  Maize_short_Cahul_6June_NonOptimum_85_NCC.PRM
 Tot(112)        6        6     2092     80.9    655.3   1627.6   863.00      0.0     79.7      1.2      3.3      0.0     99.5       23    157.9    128.3       79     0.000     0.000     0.000     0.000       97        0       42       25        1       36       17     6.968       30     32.1    2.239   -9.900     0.89    0.000    0.000       26        9     2092  Maize_short_Cahul_6June_NonOptimum_85_NCC.PRM
 Tot(113)        6        6     2093    119.3    673.5   1724.7   872.00      0.0    118.1      1.2      0.0      0.0    143.6       36    174.8    140.2       76     0.000     0.000     0.000     0.000       91        0       42       25        0       30       19     7.855       33     28.0    2.199   -9.900     0.69    0.000    0.000       26        9     2093  Maize_short_Cahul_6June_NonOptimum_85_NCC.PRM
 Tot(114)        6        6     2094     28.2    645.9   1665.2   881.00      0.0     28.2      0.0      0.0      0.0     67.2       16    167.6    134.9       79     0.000     0.000     0.000     0.000       97        0       42       25        0       30       17     8.599       36     34.2    2.942   -9.900     1.26    0.000    0.000       26        9     2094  Maize_short_Cahul_6June_NonOptimum_85_NCC.PRM
 Tot(115)        6        6     2095    116.9    576.5   1554.9   890.00      0.0    110.1      6.8      8.9      0.0    123.8       39    177.7    141.3       80     0.000     0.000     0.000     0.000       99        0       42       25        3       26       18     9.391       41     36.4    3.414   -9.900     1.14    0.000    0.000       26        9     2095  Maize_short_Cahul_6June_NonOptimum_85_NCC.PRM
 Tot(116)        6        6     2096    101.1    677.7   1702.6   899.00      0.0    101.1      0.0      0.0      0.0    120.2       28    164.7    132.8       76     0.000     0.000     0.000     0.000       97        0       42       25        1       32       18     7.432       32     31.9    2.368   -9.900     0.85    0.000    0.000       26        9     2096  Maize_short_Cahul_6June_NonOptimum_85_NCC.PRM
 Tot(117)        6        6     2097     56.2    696.8   1653.2   908.00      0.0     52.4      3.8      7.2      0.0     84.2       18    166.7    134.7       80     0.000     0.000     0.000     0.000       99        0       42       25        2       30       17     8.443       37     36.2    3.055   -9.900     1.23    0.000    0.000       26        9     2097  Maize_short_Cahul_6June_NonOptimum_85_NCC.PRM
 Tot(118)        6        6     2098    162.6    619.8   1665.3   917.00      0.0    132.3     30.3     32.8      0.0    111.5       33    195.4    154.8       80     0.000     0.000     0.000     0.000       99        0       42       25        2       23       19    10.018       42     36.1    3.614   -9.900     1.20    0.000    0.000       26        9     2098  Maize_short_Cahul_6June_NonOptimum_85_NCC.PRM
 Tot(119)        6        6     2099     73.3    613.0   1601.4   927.00      0.0     71.4      1.9      0.0      0.0     94.8       28    180.0    142.2       78     0.000     0.000     0.000     0.000       96        0       42       25        0       23       18     9.296       39     33.1    3.081   -9.900     1.13    0.000    0.000       26        9     2099  Maize_short_Cahul_6June_NonOptimum_85_NCC.PRM
