AquaCrop 7.0 (August 2022) - Output created on (date) : 24-11-2022   at (time) : 10:08:14

    RunNr     Day1   Month1    Year1     Rain      ETo       GD     CO2      Irri   Infilt   Runoff    Drain   Upflow        E     E/Ex       Tr      TrW   Tr/Trx    SaltIn   SaltOut    SaltUp  SaltProf     Cycle   SaltStr  FertStr  WeedStr  TempStr   ExpStr   StoStr  BioMass  Brelative   HI    Y(dry)  Y(fresh)    WPet      Bin     Bout     DayN   MonthN    YearN
                                           mm       mm  degC.day    ppm        mm       mm       mm       mm       mm       mm        %       mm       mm        %    ton/ha    ton/ha    ton/ha    ton/ha      days       %        %        %        %        %        %    ton/ha        %       %    ton/ha   ton/ha    kg/m3   ton/ha   ton/ha
   Tot(1)        7        5     1981    178.8    503.2   1241.2   340.11      0.0    170.0      8.8     19.7      0.0     88.2       42    267.5    268.5       89     0.000     0.000     0.000     0.000      107        0        0        0       11        5        8    18.291       83     39.7    7.262   -9.900     2.04    0.000    0.000       27        8     1981  Maize_short_Cahul_7May_Optimum_26_NCC.PRM
   Tot(2)        7        5     1982    226.7    493.1   1253.0   341.22      0.0    226.0      0.7      0.0      0.0    101.4       45    280.6    279.1      100     0.000     0.000     0.000     0.000      107        0        0        0        8        3        0    21.083       95     40.0    8.440   -9.900     2.21    0.000    0.000       27        8     1982  Maize_short_Cahul_7May_Optimum_26_NCC.PRM
   Tot(3)        7        5     1983    290.7    494.4   1282.6   342.84      0.0    264.2     26.5     26.7      0.0    101.9       47    287.3    287.1      100     0.000     0.000     0.000     0.000      107        0        0        0        6        3        0    21.239       96     40.1    8.514   -9.900     2.19    0.000    0.000       27        8     1983  Maize_short_Cahul_7May_Optimum_26_NCC.PRM
   Tot(4)        7        5     1984    204.3    469.3   1125.8   344.40      0.0    202.8      1.5      3.1      0.0    133.4       69    263.3    265.5       97     0.000     0.000     0.000     0.000      107        0        0        0       13        2        2    19.791       94     40.1    7.931   -9.900     2.00    0.000    0.000       27        8     1984  Maize_short_Cahul_7May_Optimum_26_NCC.PRM
   Tot(5)        7        5     1985    289.7    484.3   1225.0   345.87      0.0    263.2     26.5     42.7      0.0    114.2       55    279.7    277.6      100     0.000     0.000     0.000     0.000      107        0        0        0       10        1        0    20.626       97     40.0    8.250   -9.900     2.09    0.000    0.000       27        8     1985  Maize_short_Cahul_7May_Optimum_26_NCC.PRM
   Tot(6)        7        5     1986    152.5    543.3   1305.4   347.19      0.0    151.8      0.7      0.0      0.0    106.4       45    261.7    264.2       84     0.000     0.000     0.000     0.000      107        0        0        0        5        8       11    17.511       79     39.6    6.933   -9.900     1.88    0.000    0.000       27        8     1986  Maize_short_Cahul_7May_Optimum_26_NCC.PRM
   Tot(7)        7        5     1987    241.4    495.3   1193.7   348.98      0.0    233.0      8.4      0.0      0.0     96.8       50    305.7    303.2       99     0.000     0.000     0.000     0.000      107        0        0        0       13        4        1    20.812       95     40.1    8.345   -9.900     2.07    0.000    0.000       27        8     1987  Maize_short_Cahul_7May_Optimum_26_NCC.PRM
   Tot(8)        7        5     1988    149.9    506.2   1303.3   351.45      0.0    148.7      1.2      3.3      0.0    130.7       64    236.1    239.3       80     0.000     0.000     0.000     0.000      107        0        0        0        8        8       18    15.447       68     39.2    6.055   -9.900     1.65    0.000    0.000       27        8     1988  Maize_short_Cahul_7May_Optimum_26_NCC.PRM
   Tot(9)        7        5     1989    201.9    495.5   1205.1   352.89      0.0    201.5      0.4      0.0      0.0    102.1       51    296.7    295.1       97     0.000     0.000     0.000     0.000      107        0        0        0       13        4        2    20.756       93     40.2    8.345   -9.900     2.09    0.000    0.000       27        8     1989  Maize_short_Cahul_7May_Optimum_26_NCC.PRM
  Tot(10)        7        5     1990    134.9    531.5   1218.0   354.16      0.0    134.6      0.3      0.0      0.0    122.0       53    234.0    235.4       79     0.000     0.000     0.000     0.000      107        0        0        0       13       13       17    15.179       67     39.8    6.046   -9.900     1.70    0.000    0.000       27        8     1990  Maize_short_Cahul_7May_Optimum_26_NCC.PRM
  Tot(11)        7        5     1991    385.6    438.1   1229.6   355.48      0.0    339.7     45.9     69.7      0.0    119.1       77    296.0    293.8      100     0.000     0.000     0.000     0.000      107        0        0        0       15        0        0    22.432       98     40.0    8.978   -9.900     2.16    0.000    0.000       27        8     1991  Maize_short_Cahul_7May_Optimum_26_NCC.PRM
  Tot(12)        7        5     1992    170.3    523.5   1259.8   356.27      0.0    170.0      0.3      0.0      0.0    127.8       64    262.4    264.1       81     0.000     0.000     0.000     0.000      107        0        0        0       14        6       14    17.117       75     39.2    6.705   -9.900     1.72    0.000    0.000       27        8     1992  Maize_short_Cahul_7May_Optimum_26_NCC.PRM
  Tot(13)        7        5     1993    212.3    519.6   1215.6   356.95      0.0    200.6     11.7     23.7      0.0    126.2       61    265.1    263.8       86     0.000     0.000     0.000     0.000      107        0        0        0       10        6       10    17.552       81     39.7    6.964   -9.900     1.78    0.000    0.000       27        8     1993  Maize_short_Cahul_7May_Optimum_26_NCC.PRM
  Tot(14)        7        5     1994    227.8    533.6   1328.9   358.63      0.0    212.2     15.6     35.4      0.0     99.1       42    269.6    270.9       87     0.000     0.000     0.000     0.000      107        0        0        0        8       11        9    17.628       77     39.7    6.999   -9.900     1.90    0.000    0.000       27        8     1994  Maize_short_Cahul_7May_Optimum_26_NCC.PRM
  Tot(15)        7        5     1995    166.2    526.8   1338.7   360.62      0.0    162.9      3.3      3.5      0.0    105.2       47    265.1    265.0       85     0.000     0.000     0.000     0.000      107        0        0        0        7       10       13    17.334       74     39.7    6.879   -9.900     1.86    0.000    0.000       27        8     1995  Maize_short_Cahul_7May_Optimum_26_NCC.PRM
  Tot(16)        7        5     1996    151.7    562.1   1315.4   362.37      0.0    142.1      9.6      0.0      0.0    116.4       36    182.9    183.8       79     0.000     0.000     0.000     0.000      107        0        0        0        7       26       16    10.998       49     40.3    4.431   -9.900     1.48    0.000    0.000       27        8     1996  Maize_short_Cahul_7May_Optimum_26_NCC.PRM
  Tot(17)        7        5     1997    419.7    471.7   1250.0   363.47      0.0    375.1     44.6      0.3      0.0    121.8       59    281.7    281.1      100     0.000     0.000     0.000     0.000      107        0        0        0       10        2        0    22.136       97     40.0    8.862   -9.900     2.20    0.000    0.000       27        8     1997  Maize_short_Cahul_7May_Optimum_26_NCC.PRM
  Tot(18)        7        5     1998    168.8    516.5   1294.8   366.50      0.0    167.9      0.9      2.6      0.0    120.0       61    269.0    269.2       84     0.000     0.000     0.000     0.000      107        0        0        0       12        4       13    17.668       78     39.4    6.964   -9.900     1.79    0.000    0.000       27        8     1998  Maize_short_Cahul_7May_Optimum_26_NCC.PRM
  Tot(19)        7        5     1999    300.8    546.7   1379.6   368.14      0.0    283.6     17.2      0.0      0.0    112.6       50    332.5    330.4       98     0.000     0.000     0.000     0.000      107        0        0        0        7        4        2    21.754       92     40.1    8.727   -9.900     1.96    0.000    0.000       27        8     1999  Maize_short_Cahul_7May_Optimum_26_NCC.PRM
  Tot(20)        7        5     2000     73.9    617.8   1328.9   369.41      0.0     73.9      0.0      0.0      0.0     81.9       24    209.2    211.7       77     0.000     0.000     0.000     0.000      106        0        0        0        7       24       20    12.543       55     39.6    4.962   -9.900     1.71    0.000    0.000       27        8     2000  Maize_short_Cahul_7May_Optimum_26_NCC.PRM
  Tot(21)        7        5     2001    201.1    552.7   1318.6   371.07      0.0    172.7     28.4     17.8      0.0    115.8       52    262.1    261.9       80     0.000     0.000     0.000     0.000      107        0        0        0       10        3       17    16.754       72     39.0    6.535   -9.900     1.73    0.000    0.000       27        8     2001  Maize_short_Cahul_7May_Optimum_26_NCC.PRM
  Tot(22)        7        5     2002    297.9    563.7   1394.2   373.16      0.0    259.4     38.5      0.0      0.0    114.6       42    288.9    286.7       92     0.000     0.000     0.000     0.000      107        0        0        0        5       24        4    18.851       80     40.8    7.698   -9.900     1.91    0.000    0.000       27        8     2002  Maize_short_Cahul_7May_Optimum_26_NCC.PRM
  Tot(23)        7        5     2003    102.9    602.8   1413.4   375.80      0.0    102.9      0.0      0.0      0.0    101.7       29    219.7    222.0       82     0.000     0.000     0.000     0.000      107        0        0        0        3       26       16    14.151       60     40.1    5.672   -9.900     1.76    0.000    0.000       27        8     2003  Maize_short_Cahul_7May_Optimum_26_NCC.PRM
  Tot(24)        7        5     2004    257.1    519.7   1224.3   377.49      0.0    253.2      3.9      0.0      0.0    135.8       63    301.4    299.1       95     0.000     0.000     0.000     0.000      107        0        0        0       12       13        3    20.544       89     40.4    8.295   -9.900     1.90    0.000    0.000       27        8     2004  Maize_short_Cahul_7May_Optimum_26_NCC.PRM
  Tot(25)        7        5     2005    378.7    520.8   1288.0   379.80      0.0    361.0     17.7     10.1      0.0    144.1       69    326.2    325.2      100     0.000     0.000     0.000     0.000      107        0        0        0        8        3        0    22.626       97     40.1    9.071   -9.900     1.93    0.000    0.000       27        8     2005  Maize_short_Cahul_7May_Optimum_26_NCC.PRM
  Tot(26)        7        5     2006    163.6    573.8   1322.8   381.90      0.0    155.9      7.7     15.6      0.0    122.3       46    230.5    233.3       76     0.000     0.000     0.000     0.000      107        0        0        0        7       19       18    14.128       60     39.9    5.635   -9.900     1.60    0.000    0.000       27        8     2006  Maize_short_Cahul_7May_Optimum_26_NCC.PRM
  Tot(27)        7        5     2007    116.6    680.4   1503.0   383.77      0.0    115.3      1.3      0.0      0.0    111.5       28    210.4    210.6       75     0.000     0.000     0.000     0.000      107        0        0        0        1       28       19    10.964       46     40.1    4.393   -9.900     1.36    0.000    0.000       27        8     2007  Maize_short_Cahul_7May_Optimum_26_NCC.PRM
  Tot(28)        7        5     2008    125.7    607.1   1356.8   385.59      0.0    125.7      0.0      0.0      0.0    100.0       36    250.4    250.7       77     0.000     0.000     0.000     0.000      107        0        0        0        4       20       19    14.861       62     39.6    5.888   -9.900     1.68    0.000    0.000       27        8     2008  Maize_short_Cahul_7May_Optimum_26_NCC.PRM
  Tot(29)        7        5     2009    135.6    616.1   1391.5   387.37      0.0    135.0      0.6      0.0      0.0     91.0       31    264.7    264.8       82     0.000     0.000     0.000     0.000      107        0        0        0        5       12       17    15.562       65     39.5    6.144   -9.900     1.73    0.000    0.000       27        8     2009  Maize_short_Cahul_7May_Optimum_26_NCC.PRM
  Tot(30)        7        5     2010    259.9    550.9   1434.7   389.85      0.0    241.6     18.3      0.8      0.0    128.8       57    321.2    319.6       94     0.000     0.000     0.000     0.000      107        0        0        0        7        2        5    21.119       90     39.9    8.432   -9.900     1.87    0.000    0.000       27        8     2010  Maize_short_Cahul_7May_Optimum_26_NCC.PRM
  Tot(31)        7        5     2011    181.1    568.4   1367.2   391.63      0.0    176.8      4.3      2.4      0.0    123.9       52    273.1    274.0       82     0.000     0.000     0.000     0.000      107        0        0        0        4        6       13    17.670       76     39.7    7.011   -9.900     1.77    0.000    0.000       27        8     2011  Maize_short_Cahul_7May_Optimum_26_NCC.PRM
  Tot(32)        7        5     2012    233.1    640.5   1478.9   393.82      0.0    227.4      5.7      5.3      0.0    161.6       56    262.1    261.1       75     0.000     0.000     0.000     0.000      107        0        0        0        5       18       20    14.463       60     39.6    5.722   -9.900     1.35    0.000    0.000       27        8     2012  Maize_short_Cahul_7May_Optimum_26_NCC.PRM
  Tot(33)        7        5     2013    235.4    581.7   1439.0   396.48      0.0    222.9     12.5      0.0      0.0    123.0       50    300.1    300.6       85     0.000     0.000     0.000     0.000      107        0        0        0        3        6       11    19.124       79     39.4    7.534   -9.900     1.78    0.000    0.000       27        8     2013  Maize_short_Cahul_7May_Optimum_26_NCC.PRM
  Tot(34)        7        5     2014    237.3    550.5   1373.2   398.55      0.0    233.6      3.7      5.5      0.0    144.3       67    295.7    293.8       86     0.000     0.000     0.000     0.000      107        0        0        0        5        7       10    19.257       81     39.8    7.665   -9.900     1.74    0.000    0.000       27        8     2014  Maize_short_Cahul_7May_Optimum_26_NCC.PRM
  Tot(35)        7        5     2015    139.4    626.7   1394.8   401.00      0.0    138.0      1.4      0.0      0.0     98.5       32    250.1    252.4       78     0.000     0.000     0.000     0.000      107        0        0        0        5       12       14    14.883       63     39.4    5.859   -9.900     1.68    0.000    0.000       27        8     2015  Maize_short_Cahul_7May_Optimum_26_NCC.PRM
  Tot(36)        7        5     2016    181.5    571.0   1373.9   403.00      0.0    180.8      0.7      0.3      0.0    147.1       66    254.4    254.7       74     0.000     0.000     0.000     0.000      107        0        0        0        8       11       21    15.238       64     39.3    5.986   -9.900     1.49    0.000    0.000       27        8     2016  Maize_short_Cahul_7May_Optimum_26_NCC.PRM
  Tot(37)        7        5     2017    266.4    570.6   1365.8   405.00      0.0    238.1     28.3      0.0      0.0    103.1       46    341.9    340.7       94     0.000     0.000     0.000     0.000      107        0        0        0        7        5        5    21.436       90     40.1    8.598   -9.900     1.93    0.000    0.000       27        8     2017  Maize_short_Cahul_7May_Optimum_26_NCC.PRM
  Tot(38)        7        5     2018    180.2    562.5   1480.2   408.00      0.0    173.9      6.3      1.1      0.0     97.7       37    290.0    290.6       91     0.000     0.000     0.000     0.000      107        0        0        0        3       10        6    20.260       84     40.1    8.117   -9.900     2.09    0.000    0.000       27        8     2018  Maize_short_Cahul_7May_Optimum_26_NCC.PRM
  Tot(39)        7        5     2019    187.7    591.3   1433.5   410.00      0.0    186.5      1.2      1.0      0.0    157.7       62    253.3    254.2       76     0.000     0.000     0.000     0.000      107        0        0        0        3       15       19    15.720       65     39.4    6.200   -9.900     1.51    0.000    0.000       27        8     2019  Maize_short_Cahul_7May_Optimum_26_NCC.PRM
  Tot(40)        7        5     2020    121.3    559.6   1250.3   412.00      0.0    121.2      0.1      0.0      0.0    127.2       44    192.9    193.3       76     0.000     0.000     0.000     0.000       99        0        0        0        9       20       19    12.348       53     36.0    4.440   -9.900     1.42    0.000    0.000       27        8     2020  Maize_short_Cahul_7May_Optimum_26_NCC.PRM
  Tot(41)        7        5     2021    141.0    543.0   1190.2   414.00      0.0    137.9      3.1     10.2      0.0    120.4       58    233.0    233.0       77     0.000     0.000     0.000     0.000      107        0        0        0       15        5       19    15.304       67     38.8    5.935   -9.900     1.68    0.000    0.000       27        8     2021  Maize_short_Cahul_7May_Optimum_26_NCC.PRM
  Tot(42)        7        5     2022    148.0    620.9   1405.5   417.00      0.0    137.5     10.5     22.5      0.0    135.6       40    188.0    188.1       74     0.000     0.000     0.000     0.000       92        0        0        0        8       26       21    10.615       44     28.7    3.050   -9.900     0.99    0.000    0.000       27        8     2022  Maize_short_Cahul_7May_Optimum_26_NCC.PRM
  Tot(43)        7        5     2023    142.1    543.7   1207.1   419.00      0.0    132.2      9.9     28.0      0.0    121.9       48    198.6    198.6       77     0.000     0.000     0.000     0.000       97        0        0        0       15       19       20    12.444       52     33.8    4.204   -9.900     1.32    0.000    0.000       27        8     2023  Maize_short_Cahul_7May_Optimum_26_NCC.PRM
  Tot(44)        7        5     2024    157.9    558.3   1191.1   421.00      0.0    147.3     10.6     18.7      0.0    127.5       62    229.3    229.3       71     0.000     0.000     0.000     0.000      107        0        0        0       16        7       23    14.015       61     38.3    5.370   -9.900     1.51    0.000    0.000       27        8     2024  Maize_short_Cahul_7May_Optimum_26_NCC.PRM
  Tot(45)        7        5     2025    134.3    524.4   1160.4   423.00      0.0    126.3      8.0      3.8      0.0     88.7       48    259.4    259.2       80     0.000     0.000     0.000     0.000      107        0        0        0       13        3       15    16.736       73     39.1    6.540   -9.900     1.88    0.000    0.000       27        8     2025  Maize_short_Cahul_7May_Optimum_26_NCC.PRM
  Tot(46)        7        5     2026    179.3    530.2   1132.8   424.00      0.0    176.0      3.3      0.0      0.0    116.4       64    281.0    280.7       83     0.000     0.000     0.000     0.000      107        0        0        0       17        3       12    18.324       79     39.5    7.241   -9.900     1.82    0.000    0.000       27        8     2026  Maize_short_Cahul_7May_Optimum_26_NCC.PRM
  Tot(47)        7        5     2027    147.8    614.2   1431.6   426.00      0.0    147.5      0.3      0.0      0.0    134.0       49    239.3    239.9       74     0.000     0.000     0.000     0.000      105        0        0        0        3       13       23    14.259       59     38.6    5.505   -9.900     1.48    0.000    0.000       27        8     2027  Maize_short_Cahul_7May_Optimum_26_NCC.PRM
  Tot(48)        7        5     2028     95.9    550.1   1230.3   428.00      0.0     94.0      1.9      7.6      0.0    100.0       40    203.7    203.7       75     0.000     0.000     0.000     0.000      100        0        0        0       16       19       19    12.978       54     36.8    4.773   -9.900     1.58    0.000    0.000       27        8     2028  Maize_short_Cahul_7May_Optimum_26_NCC.PRM
  Tot(49)        7        5     2029    139.1    472.2   1022.6   429.00      0.0    138.1      1.0      0.0      0.0    111.4       63    246.5    245.7       86     0.000     0.000     0.000     0.000      107        0        0        0       22        3        9    18.548       84     39.8    7.387   -9.900     2.06    0.000    0.000       27        8     2029  Maize_short_Cahul_7May_Optimum_26_NCC.PRM
  Tot(50)        7        5     2030    107.6    604.7   1297.5   431.00      0.0    104.3      3.3     11.9      0.0    116.2       38    195.2    196.0       73     0.000     0.000     0.000     0.000       97        0        0        0       15       19       21    11.639       49     33.3    3.879   -9.900     1.27    0.000    0.000       27        8     2030  Maize_short_Cahul_7May_Optimum_26_NCC.PRM
  Tot(51)        7        5     2031     65.1    582.7   1319.5   432.00      0.0     65.1      0.0      0.0      0.0     83.8       28    199.4    199.4       76     0.000     0.000     0.000     0.000       98        0        0        0       11       21       19    12.511       52     34.8    4.354   -9.900     1.55    0.000    0.000       27        8     2031  Maize_short_Cahul_7May_Optimum_26_NCC.PRM
  Tot(52)        7        5     2032    126.7    535.5   1260.4   433.00      0.0    120.5      6.2     13.1      0.0    103.5       47    227.6    227.6       78     0.000     0.000     0.000     0.000      107        0        0        0       10       14       20    15.224       64     39.3    5.987   -9.900     1.81    0.000    0.000       27        8     2032  Maize_short_Cahul_7May_Optimum_26_NCC.PRM
  Tot(53)        7        5     2033     89.9    556.5   1231.3   435.00      0.0     89.9      0.0      0.0      0.0    105.0       39    200.0    200.0       75     0.000     0.000     0.000     0.000       99        0        0        0       15       22       20    12.437       53     35.5    4.413   -9.900     1.47    0.000    0.000       27        8     2033  Maize_short_Cahul_7May_Optimum_26_NCC.PRM
  Tot(54)        7        5     2034    125.6    531.6   1153.0   436.00      0.0    125.3      0.3      0.0      0.0    112.2       57    238.5    238.4       77     0.000     0.000     0.000     0.000      107        0        0        0       16        4       18    15.712       69     38.8    6.101   -9.900     1.74    0.000    0.000       27        8     2034  Maize_short_Cahul_7May_Optimum_26_NCC.PRM
  Tot(55)        7        5     2035     60.3    565.4   1274.0   437.00      0.0     60.2      0.1      0.0      0.0     82.3       29    196.4    196.6       76     0.000     0.000     0.000     0.000       99        0        0        0        9       18       20    12.704       53     35.6    4.521   -9.900     1.63    0.000    0.000       27        8     2035  Maize_short_Cahul_7May_Optimum_26_NCC.PRM
  Tot(56)        7        5     2036    117.7    506.6   1134.7   438.00      0.0    115.6      2.1      6.3      0.0     97.9       49    235.8    235.5       81     0.000     0.000     0.000     0.000      107        0        0        0       15        7       16    16.755       72     39.3    6.585   -9.900     1.97    0.000    0.000       27        8     2036  Maize_short_Cahul_7May_Optimum_26_NCC.PRM
  Tot(57)        7        5     2037     78.7    562.6   1339.6   438.00      0.0     78.7      0.0      0.0      0.0    100.3       35    196.7    196.9       76     0.000     0.000     0.000     0.000      100        0        0        0        8       19       19    13.093       54     36.6    4.798   -9.900     1.63    0.000    0.000       27        8     2037  Maize_short_Cahul_7May_Optimum_26_NCC.PRM
  Tot(58)        7        5     2038    146.3    610.7   1418.6   439.00      0.0    140.5      5.8     11.8      0.0    140.3       43    202.8    202.8       76     0.000     0.000     0.000     0.000       96        0        0        0        4       21       20    12.140       50     32.9    3.996   -9.900     1.17    0.000    0.000       27        8     2038  Maize_short_Cahul_7May_Optimum_26_NCC.PRM
  Tot(59)        7        5     2039    122.5    542.5   1188.4   440.00      0.0    116.4      6.1      9.9      0.0    111.3       45    212.2    212.1       77     0.000     0.000     0.000     0.000      107        0        0        0       12       15       19    14.093       60     39.6    5.579   -9.900     1.72    0.000    0.000       27        8     2039  Maize_short_Cahul_7May_Optimum_26_NCC.PRM
  Tot(60)        7        5     2040    185.1    605.9   1342.0   440.00      0.0    169.4     15.7     33.5      0.0    114.5       45    247.7    247.8       75     0.000     0.000     0.000     0.000      107        0        0        0        8        5       19    15.569       66     38.5    6.000   -9.900     1.66    0.000    0.000       27        8     2040  Maize_short_Cahul_7May_Optimum_26_NCC.PRM
  Tot(61)        7        5     2041    249.8    490.9   1178.5   441.00      0.0    211.4     38.4      0.0      0.0    123.2       69    284.9    282.9       93     0.000     0.000     0.000     0.000      107        0        0        0       13        7        5    20.370       87     40.4    8.233   -9.900     2.02    0.000    0.000       27        8     2041  Maize_short_Cahul_7May_Optimum_26_NCC.PRM
  Tot(62)        7        5     2042    148.2    558.0   1288.3   441.00      0.0    144.1      4.1      0.7      0.0    121.0       54    247.2    249.2       77     0.000     0.000     0.000     0.000      106        0        0        0        9        9       20    15.341       64     38.7    5.942   -9.900     1.61    0.000    0.000       27        8     2042  Maize_short_Cahul_7May_Optimum_26_NCC.PRM
  Tot(63)        7        5     2043    166.4    509.4   1156.4   441.00      0.0    137.5     28.9     39.0      0.0    101.6       50    218.5    218.5       79     0.000     0.000     0.000     0.000      106        0        0        0       16       11       19    14.722       63     39.5    5.810   -9.900     1.82    0.000    0.000       27        8     2043  Maize_short_Cahul_7May_Optimum_26_NCC.PRM
  Tot(64)        7        5     2044    144.3    563.6   1265.1   442.00      0.0    143.2      1.1      0.0      0.0    111.5       51    256.2    256.1       79     0.000     0.000     0.000     0.000      107        0        0        0       11        4       18    16.215       68     38.9    6.315   -9.900     1.72    0.000    0.000       27        8     2044  Maize_short_Cahul_7May_Optimum_26_NCC.PRM
  Tot(65)        7        5     2045     84.4    589.4   1286.1   442.00      0.0     84.2      0.2      0.0      0.0    100.7       34    201.9    202.0       76     0.000     0.000     0.000     0.000       97        0        0        0        6       19       20    12.448       52     33.7    4.201   -9.900     1.40    0.000    0.000       27        8     2045  Maize_short_Cahul_7May_Optimum_26_NCC.PRM
  Tot(66)        7        5     2046    156.3    572.0   1377.8   442.00      0.0    155.2      1.1      0.0      0.0    147.9       58    229.6    229.6       78     0.000     0.000     0.000     0.000      103        0        0        0        7       10       19    14.977       61     38.9    5.831   -9.900     1.55    0.000    0.000       27        8     2046  Maize_short_Cahul_7May_Optimum_26_NCC.PRM
  Tot(67)        7        5     2047    141.8    506.8   1151.7   442.00      0.0    138.8      3.0      7.8      0.0    121.6       60    231.5    231.5       81     0.000     0.000     0.000     0.000      107        0        0        0       17       12       19    15.912       67     39.7    6.323   -9.900     1.79    0.000    0.000       27        8     2047  Maize_short_Cahul_7May_Optimum_26_NCC.PRM
  Tot(68)        7        5     2048    127.0    530.2   1197.6   442.00      0.0    124.6      2.4     14.2      0.0     97.3       43    227.7    227.6       77     0.000     0.000     0.000     0.000      107        0        0        0       12       17       20    14.473       62     39.4    5.708   -9.900     1.76    0.000    0.000       27        8     2048  Maize_short_Cahul_7May_Optimum_26_NCC.PRM
  Tot(69)        7        5     2049     65.0    597.5   1330.6   443.00      0.0     65.0      0.0      0.0      0.0     96.3       28    175.0    175.1       75     0.000     0.000     0.000     0.000       93        0        0        0       10       28       19    10.187       42     30.0    3.060   -9.900     1.14    0.000    0.000       27        8     2049  Maize_short_Cahul_7May_Optimum_26_NCC.PRM
  Tot(70)        7        5     2050     65.9    594.2   1229.9   443.00      0.0     65.9      0.0      0.0      0.0     94.5       30    184.0    184.0       74     0.000     0.000     0.000     0.000       93        0        0        0       19       24       20    11.135       46     30.0    3.336   -9.900     1.21    0.000    0.000       27        8     2050  Maize_short_Cahul_7May_Optimum_26_NCC.PRM
  Tot(71)        7        5     2051     89.3    498.8   1217.3   443.00      0.0     89.3      0.0      0.0      0.0    108.0       49    199.2    199.2       77     0.000     0.000     0.000     0.000      103        0        0        0       13       12       19    14.042       59     39.2    5.508   -9.900     1.83    0.000    0.000       27        8     2051  Maize_short_Cahul_7May_Optimum_26_NCC.PRM
  Tot(72)        7        5     2052    173.2    465.6   1074.8   443.00      0.0    165.6      7.6     20.2      0.0    112.5       62    247.1    246.5       88     0.000     0.000     0.000     0.000      107        0        0        0       21        6        8    19.023       84     40.2    7.644   -9.900     2.13    0.000    0.000       27        8     2052  Maize_short_Cahul_7May_Optimum_26_NCC.PRM
  Tot(73)        7        5     2053    258.8    525.4   1306.2   443.00      0.0    219.8     39.0     43.8      0.0    140.1       74    260.1    260.3       79     0.000     0.000     0.000     0.000      107        0        0        0        6        4       16    17.774       73     39.4    6.998   -9.900     1.75    0.000    0.000       27        8     2053  Maize_short_Cahul_7May_Optimum_26_NCC.PRM
  Tot(74)        7        5     2054    114.1    654.6   1373.8   443.00      0.0    108.9      5.2      7.7      0.0    118.9       33    195.0    195.4       73     0.000     0.000     0.000     0.000       93        0        0        0        7       23       21    11.060       45     29.6    3.276   -9.900     1.05    0.000    0.000       27        8     2054  Maize_short_Cahul_7May_Optimum_26_NCC.PRM
  Tot(75)        7        5     2055    125.6    577.6   1324.2   443.00      0.0    123.7      1.9      0.9      0.0    110.8       44    234.7    234.7       78     0.000     0.000     0.000     0.000      103        0        0        0        6       10       20    14.461       60     38.9    5.625   -9.900     1.63    0.000    0.000       27        8     2055  Maize_short_Cahul_7May_Optimum_26_NCC.PRM
  Tot(76)        7        5     2056    105.4    585.8   1315.4   442.00      0.0    102.7      2.7      0.0      0.0     86.5       32    239.7    239.7       79     0.000     0.000     0.000     0.000      106        0        0        0        9       15       20    14.830       61     39.1    5.806   -9.900     1.78    0.000    0.000       27        8     2056  Maize_short_Cahul_7May_Optimum_26_NCC.PRM
  Tot(77)        7        5     2057    269.0    525.9   1272.0   442.00      0.0    257.2     11.8     14.0      0.0    146.1       77    312.1    310.8       90     0.000     0.000     0.000     0.000      107        0        0        0       10        2        8    21.162       87     39.8    8.419   -9.900     1.84    0.000    0.000       27        8     2057  Maize_short_Cahul_7May_Optimum_26_NCC.PRM
  Tot(78)        7        5     2058    124.4    548.4   1311.1   442.00      0.0    121.2      3.2      9.7      0.0    128.3       47    194.4    195.7       77     0.000     0.000     0.000     0.000       99        0        0        0        8       21       19    12.588       52     36.1    4.542   -9.900     1.43    0.000    0.000       27        8     2058  Maize_short_Cahul_7May_Optimum_26_NCC.PRM
  Tot(79)        7        5     2059    105.5    597.5   1374.9   442.00      0.0    105.5      0.0      0.0      0.0    112.2       37    209.2    209.2       76     0.000     0.000     0.000     0.000      100        0        0        0        6       19       20    12.232       53     36.7    4.489   -9.900     1.41    0.000    0.000       27        8     2059  Maize_short_Cahul_7May_Optimum_26_NCC.PRM
  Tot(80)        7        5     2060    104.2    524.0   1244.8   442.00      0.0    103.6      0.6      0.0      0.0    105.1       49    220.1    220.1       78     0.000     0.000     0.000     0.000      105        0        0        0       12       10       19    14.873       62     39.2    5.837   -9.900     1.80    0.000    0.000       27        8     2060  Maize_short_Cahul_7May_Optimum_26_NCC.PRM
  Tot(81)        7        5     2061    154.5    557.8   1246.6   441.00      0.0    147.0      7.5     10.5      0.0    139.2       59    221.4    221.4       74     0.000     0.000     0.000     0.000      105        0        0        0       11       10       23    14.278       59     38.8    5.545   -9.900     1.54    0.000    0.000       27        8     2061  Maize_short_Cahul_7May_Optimum_26_NCC.PRM
  Tot(82)        7        5     2062     49.8    615.6   1345.0   441.00      0.0     49.8      0.0      0.0      0.0     79.0       23    183.0    183.0       75     0.000     0.000     0.000     0.000       95        0        0        0        5       24       19    10.879       45     31.9    3.471   -9.900     1.34    0.000    0.000       27        8     2062  Maize_short_Cahul_7May_Optimum_26_NCC.PRM
  Tot(83)        7        5     2063     88.7    583.9   1223.7   441.00      0.0     85.0      3.7     11.4      0.0     77.6       30    218.9    218.9       75     0.000     0.000     0.000     0.000      101        0        0        0       17       10       20    13.650       57     36.9    5.032   -9.900     1.70    0.000    0.000       27        8     2063  Maize_short_Cahul_7May_Optimum_26_NCC.PRM
  Tot(84)        7        5     2064    138.4    569.7   1333.5   440.00      0.0    135.2      3.2      7.4      0.0    127.2       52    226.2    226.2       74     0.000     0.000     0.000     0.000      107        0        0        0        9       14       22    14.395       61     39.0    5.612   -9.900     1.59    0.000    0.000       27        8     2064  Maize_short_Cahul_7May_Optimum_26_NCC.PRM
  Tot(85)        7        5     2065    126.7    609.6   1325.7   440.00      0.0    125.7      1.0      1.5      0.0    131.0       45    215.7    215.7       76     0.000     0.000     0.000     0.000      101        0        0        0        5       13       21    13.410       56     37.0    4.965   -9.900     1.44    0.000    0.000       27        8     2065  Maize_short_Cahul_7May_Optimum_26_NCC.PRM
  Tot(86)        7        5     2066    108.7    584.6   1281.5   440.00      0.0    106.2      2.5      7.6      0.0     97.6       39    225.7    225.7       74     0.000     0.000     0.000     0.000      103        0        0        0        9       10       20    14.139       60     38.5    5.447   -9.900     1.69    0.000    0.000       27        8     2066  Maize_short_Cahul_7May_Optimum_26_NCC.PRM
  Tot(87)        7        5     2067    187.5    493.7   1242.3   439.00      0.0    185.7      1.8      0.0      0.0    114.9       64    285.4    284.2       90     0.000     0.000     0.000     0.000      107        0        0        0       12        1        8    20.699       87     39.9    8.254   -9.900     2.06    0.000    0.000       27        8     2067  Maize_short_Cahul_7May_Optimum_26_NCC.PRM
  Tot(88)        7        5     2068    218.3    509.3   1300.0   439.00      0.0    218.2      0.1      0.0      0.0    120.3       61    296.3    295.4       94     0.000     0.000     0.000     0.000      107        0        0        0       11        8        4    21.006       87     40.4    8.481   -9.900     2.04    0.000    0.000       27        8     2068  Maize_short_Cahul_7May_Optimum_26_NCC.PRM
  Tot(89)        7        5     2069    137.2    588.4   1344.9   438.00      0.0    129.7      7.5     11.8      0.0     99.7       40    242.9    245.1       78     0.000     0.000     0.000     0.000      105        0        0        0        9       12       20    14.993       62     39.0    5.850   -9.900     1.72    0.000    0.000       27        8     2069  Maize_short_Cahul_7May_Optimum_26_NCC.PRM
  Tot(90)        7        5     2070    163.3    554.5   1293.7   437.00      0.0    142.0     21.3     17.8      0.0    127.9       49    214.5    214.5       78     0.000     0.000     0.000     0.000      101        0        0        0        9       20       19    13.484       56     37.8    5.099   -9.900     1.50    0.000    0.000       27        8     2070  Maize_short_Cahul_7May_Optimum_26_NCC.PRM
  Tot(91)        7        5     2071     67.1    543.0   1248.3   437.00      0.0     67.1      0.0      0.0      0.0     88.9       32    195.0    195.0       77     0.000     0.000     0.000     0.000       99        0        0        0        9       18       19    12.718       53     35.9    4.561   -9.900     1.65    0.000    0.000       27        8     2071  Maize_short_Cahul_7May_Optimum_26_NCC.PRM
  Tot(92)        7        5     2072    174.9    468.4   1154.9   436.00      0.0    173.9      1.0      0.2      0.0    101.3       59    279.7    278.6       94     0.000     0.000     0.000     0.000      107        0        0        0       11        2        4    21.460       91     40.0    8.580   -9.900     2.25    0.000    0.000       27        8     2072  Maize_short_Cahul_7May_Optimum_26_NCC.PRM
  Tot(93)        7        5     2073     82.4    562.3   1220.8   436.00      0.0     82.2      0.2      2.8      0.0     98.7       39    202.3    203.5       72     0.000     0.000     0.000     0.000      102        0        0        0       16       18       22    12.774       54     38.2    4.879   -9.900     1.63    0.000    0.000       27        8     2073  Maize_short_Cahul_7May_Optimum_26_NCC.PRM
  Tot(94)        7        5     2074    239.7    446.9   1131.5   435.00      0.0    219.9     19.8     38.7      0.0     93.3       50    252.9    251.7      100     0.000     0.000     0.000     0.000      107        0        0        0       14        1        0    21.191       97     40.0    8.477   -9.900     2.45    0.000    0.000       27        8     2074  Maize_short_Cahul_7May_Optimum_26_NCC.PRM
  Tot(95)        7        5     2075    148.0    573.5   1316.8   435.00      0.0    144.9      3.1      4.9      0.0    147.4       53    212.9    214.1       77     0.000     0.000     0.000     0.000      101        0        0        0        7       13       20    13.534       57     37.4    5.060   -9.900     1.41    0.000    0.000       27        8     2075  Maize_short_Cahul_7May_Optimum_26_NCC.PRM
  Tot(96)        7        5     2076    156.7    544.9   1292.8   434.00      0.0    154.2      2.5      9.9      0.0    130.0       54    222.5    222.3       78     0.000     0.000     0.000     0.000      107        0        0        0       14       11       18    14.370       61     39.1    5.623   -9.900     1.60    0.000    0.000       27        8     2076  Maize_short_Cahul_7May_Optimum_26_NCC.PRM
  Tot(97)        7        5     2077    245.5    491.2   1208.3   433.00      0.0    219.6     25.9     32.2      0.0     98.6       55    290.5    289.8       93     0.000     0.000     0.000     0.000      107        0        0        0       12        9        6    20.522       87     40.2    8.257   -9.900     2.12    0.000    0.000       27        8     2077  Maize_short_Cahul_7May_Optimum_26_NCC.PRM
  Tot(98)        7        5     2078    154.5    625.6   1413.3   433.00      0.0    152.8      1.7      2.7      0.0    152.1       49    218.2    219.1       75     0.000     0.000     0.000     0.000       98        0        0        0        5       20       21    12.860       52     34.3    4.407   -9.900     1.20    0.000    0.000       27        8     2078  Maize_short_Cahul_7May_Optimum_26_NCC.PRM
  Tot(99)        7        5     2079    119.0    586.4   1303.9   432.00      0.0    117.3      1.7      1.4      0.0    113.1       41    217.5    217.5       76     0.000     0.000     0.000     0.000       98        0        0        0       12       18       20    12.538       52     34.5    4.322   -9.900     1.32    0.000    0.000       27        8     2079  Maize_short_Cahul_7May_Optimum_26_NCC.PRM
 Tot(100)        7        5     2080    132.4    565.4   1298.1   432.00      0.0    119.8     12.6     15.4      0.0    120.6       44    203.0    203.0       75     0.000     0.000     0.000     0.000       99        0        0        0       10       18       21    12.835       54     35.4    4.539   -9.900     1.43    0.000    0.000       27        8     2080  Maize_short_Cahul_7May_Optimum_26_NCC.PRM
 Tot(101)        7        5     2081    178.8    575.9   1348.0   431.00      0.0    176.3      2.5      0.1      0.0    144.9       62    255.0    255.0       78     0.000     0.000     0.000     0.000      106        0        0        0        6        7       20    15.902       65     38.9    6.187   -9.900     1.55    0.000    0.000       27        8     2081  Maize_short_Cahul_7May_Optimum_26_NCC.PRM
 Tot(102)        7        5     2082    165.3    523.9   1282.0   431.00      0.0    163.0      2.3      2.2      0.0    133.8       63    250.2    250.0       82     0.000     0.000     0.000     0.000      107        0        0        0        9        8       15    17.567       74     39.6    6.948   -9.900     1.81    0.000    0.000       27        8     2082  Maize_short_Cahul_7May_Optimum_26_NCC.PRM
 Tot(103)        7        5     2083    162.8    539.5   1292.6   430.00      0.0    152.1     10.7      0.5      0.0     84.6       41    288.6    287.9       85     0.000     0.000     0.000     0.000      107        0        0        0        9        3       10    19.683       82     39.6    7.788   -9.900     2.09    0.000    0.000       27        8     2083  Maize_short_Cahul_7May_Optimum_26_NCC.PRM
 Tot(104)        7        5     2084     86.8    574.7   1378.3   429.00      0.0     85.8      1.0      1.0      0.0    102.6       35    198.2    199.1       77     0.000     0.000     0.000     0.000       97        0        0        0        8       20       19    12.106       50     33.8    4.095   -9.900     1.39    0.000    0.000       27        8     2084  Maize_short_Cahul_7May_Optimum_26_NCC.PRM
 Tot(105)        7        5     2085    255.0    500.8   1168.8   429.00      0.0    224.4     30.6     54.3      0.0    122.1       70    269.1    268.7       84     0.000     0.000     0.000     0.000      107        0        0        0       11        2       13    18.564       79     39.5    7.329   -9.900     1.87    0.000    0.000       27        8     2085  Maize_short_Cahul_7May_Optimum_26_NCC.PRM
 Tot(106)        7        5     2086     49.8    605.2   1308.0   428.00      0.0     49.8      0.0      0.7      0.0     79.1       24    186.6    187.0       74     0.000     0.000     0.000     0.000       96        0        0        0       14       24       20    11.025       47     32.6    3.591   -9.900     1.36    0.000    0.000       27        8     2086  Maize_short_Cahul_7May_Optimum_26_NCC.PRM
 Tot(107)        7        5     2087    153.5    591.6   1339.1   428.00      0.0    151.0      2.5      3.4      0.0    144.9       52    219.4    219.4       76     0.000     0.000     0.000     0.000      100        0        0        0        7       14       20    13.343       55     36.5    4.872   -9.900     1.34    0.000    0.000       27        8     2087  Maize_short_Cahul_7May_Optimum_26_NCC.PRM
 Tot(108)        7        5     2088    220.5    536.3   1278.4   427.00      0.0    208.0     12.5     22.0      0.0    150.3       73    258.3    258.2       81     0.000     0.000     0.000     0.000      107        0        0        0        9        3       18    16.763       70     39.2    6.568   -9.900     1.61    0.000    0.000       27        8     2088  Maize_short_Cahul_7May_Optimum_26_NCC.PRM
 Tot(109)        7        5     2089    189.0    526.2   1203.1   427.00      0.0    171.7     17.3     37.5      0.0    117.5       61    237.4    237.5       78     0.000     0.000     0.000     0.000      107        0        0        0       14        6       19    15.500       65     39.1    6.059   -9.900     1.71    0.000    0.000       27        8     2089  Maize_short_Cahul_7May_Optimum_26_NCC.PRM
 Tot(110)        7        5     2090    146.1    556.3   1222.0   426.00      0.0    145.2      0.9      2.0      0.0    119.5       53    247.2    247.3       79     0.000     0.000     0.000     0.000      107        0        0        0       13        8       20    15.108       65     39.0    5.892   -9.900     1.61    0.000    0.000       27        8     2090  Maize_short_Cahul_7May_Optimum_26_NCC.PRM
 Tot(111)        7        5     2091    104.2    591.7   1301.1   425.00      0.0    104.1      0.1      0.0      0.0    112.4       38    196.4    196.0       73     0.000     0.000     0.000     0.000      107        0        0        0        9       20       19    11.682       51     39.8    4.650   -9.900     1.51    0.000    0.000       27        8     2091  Maize_short_Cahul_7May_Optimum_26_NCC.PRM
 Tot(112)        7        5     2092    223.4    504.6   1185.9   425.00      0.0    207.8     15.6     33.2      0.0    111.0       61    274.8    274.3       86     0.000     0.000     0.000     0.000      107        0        0        0       10        9       10    18.732       79     40.2    7.531   -9.900     1.95    0.000    0.000       27        8     2092  Maize_short_Cahul_7May_Optimum_26_NCC.PRM
 Tot(113)        7        5     2093    134.9    544.9   1199.6   424.00      0.0    130.6      4.3     17.4      0.0    107.1       44    213.0    213.8       74     0.000     0.000     0.000     0.000      107        0        0        0       12       14       20    13.623       58     39.0    5.313   -9.900     1.66    0.000    0.000       27        8     2093  Maize_short_Cahul_7May_Optimum_26_NCC.PRM
 Tot(114)        7        5     2094    158.1    600.4   1432.5   424.00      0.0    153.7      4.4     10.2      0.0    135.9       48    218.5    218.7       74     0.000     0.000     0.000     0.000      100        0        0        0        4       17       21    12.526       52     36.7    4.593   -9.900     1.31    0.000    0.000       27        8     2094  Maize_short_Cahul_7May_Optimum_26_NCC.PRM
 Tot(115)        7        5     2095    109.2    608.8   1349.6   423.00      0.0    109.1      0.1      0.0      0.0    116.8       37    212.4    212.4       75     0.000     0.000     0.000     0.000      103        0        0        0        6       25       20    12.658       54     39.5    4.994   -9.900     1.52    0.000    0.000       27        8     2095  Maize_short_Cahul_7May_Optimum_26_NCC.PRM
 Tot(116)        7        5     2096    276.7    443.2   1120.1   423.00      0.0    257.2     19.5     36.9      0.0    121.5       77    280.3    278.7      100     0.000     0.000     0.000     0.000      107        0        0        0       19        0        0    21.324       97     40.0    8.536   -9.900     2.12    0.000    0.000       27        8     2096  Maize_short_Cahul_7May_Optimum_26_NCC.PRM
 Tot(117)        7        5     2097     79.0    527.2   1210.4   422.00      0.0     78.9      0.1      0.0      0.0     82.3       35    217.4    218.9       80     0.000     0.000     0.000     0.000      105        0        0        0       15       14       19    14.507       62     39.5    5.734   -9.900     1.92    0.000    0.000       27        8     2097  Maize_short_Cahul_7May_Optimum_26_NCC.PRM
 Tot(118)        7        5     2098    175.6    536.5   1255.4   422.00      0.0    169.5      6.1     10.3      0.0    136.3       62    249.1    248.7       79     0.000     0.000     0.000     0.000      107        0        0        0        9        9       15    17.537       74     39.5    6.922   -9.900     1.80    0.000    0.000       27        8     2098  Maize_short_Cahul_7May_Optimum_26_NCC.PRM
 Tot(119)        7        5     2099    145.6    514.2   1254.1   421.00      0.0    145.1      0.5      0.0      0.0    114.5       59    252.3    252.1       79     0.000     0.000     0.000     0.000      107        0        0        0       13        6       15    17.444       74     39.5    6.893   -9.900     1.88    0.000    0.000       27        8     2099  Maize_short_Cahul_7May_Optimum_26_NCC.PRM
