AquaCrop 7.0 (August 2022) - Output created on (date) : 23-11-2022   at (time) : 11:53:48

    RunNr     Day1   Month1    Year1     Rain      ETo       GD     CO2      Irri   Infilt   Runoff    Drain   Upflow        E     E/Ex       Tr      TrW   Tr/Trx    SaltIn   SaltOut    SaltUp  SaltProf     Cycle   SaltStr  FertStr  WeedStr  TempStr   ExpStr   StoStr  BioMass  Brelative   HI    Y(dry)  Y(fresh)    WPet      Bin     Bout     DayN   MonthN    YearN
                                           mm       mm  degC.day    ppm        mm       mm       mm       mm       mm       mm        %       mm       mm        %    ton/ha    ton/ha    ton/ha    ton/ha      days       %        %        %        %        %        %    ton/ha        %       %    ton/ha   ton/ha    kg/m3   ton/ha   ton/ha
   Tot(1)       22        5     1981    112.7    489.0   1247.8   340.11      0.0    112.6      0.1      0.0      0.0     77.0       34    238.7    185.0       91     0.000     0.000     0.000     0.000      107        0       42       25       11        7        7    13.569       65     40.3    5.462   -9.900     1.73    0.000    0.000       11        9     1981  Maize_short_Chisinau_22May_NonOptimum_85_MOHC.PRM
   Tot(2)       22        5     1982    204.3    456.0   1247.6   341.22      0.0    204.0      0.3      0.0      0.0    113.7       55    257.4    198.1      100     0.000     0.000     0.000     0.000      107        0       42       25        9        2        0    16.379       75     40.0    6.557   -9.900     1.77    0.000    0.000       11        9     1982  Maize_short_Chisinau_22May_NonOptimum_85_MOHC.PRM
   Tot(3)       22        5     1983    263.2    457.8   1241.5   342.84      0.0    246.8     16.4     28.6      0.0    125.5       63    258.5    200.2      100     0.000     0.000     0.000     0.000      107        0       42       25       10        3        0    15.990       75     40.1    6.413   -9.900     1.67    0.000    0.000       11        9     1983  Maize_short_Chisinau_22May_NonOptimum_85_MOHC.PRM
   Tot(4)       22        5     1984    214.8    437.7   1110.3   344.40      0.0    211.4      3.4      5.3      0.0    144.1       77    242.9    188.9      100     0.000     0.000     0.000     0.000      107        0       42       25       15        1        0    15.604       75     40.0    6.248   -9.900     1.61    0.000    0.000       11        9     1984  Maize_short_Chisinau_22May_NonOptimum_85_MOHC.PRM
   Tot(5)       22        5     1985    293.3    457.2   1166.1   345.87      0.0    263.7     29.6     63.9      0.0    122.0       66    263.0    203.3       97     0.000     0.000     0.000     0.000      107        0       42       25       15        2        2    15.134       73     40.1    6.067   -9.900     1.58    0.000    0.000       11        9     1985  Maize_short_Chisinau_22May_NonOptimum_85_MOHC.PRM
   Tot(6)       22        5     1986    182.0    520.8   1291.5   347.19      0.0    181.3      0.7      0.0      0.0    116.4       50    270.7    210.0       93     0.000     0.000     0.000     0.000      107        0       42       25        9        5        6    14.711       69     40.1    5.898   -9.900     1.52    0.000    0.000       11        9     1986  Maize_short_Chisinau_22May_NonOptimum_85_MOHC.PRM
   Tot(7)       22        5     1987    250.7    477.0   1168.0   348.98      0.0    236.4     14.3     17.7      0.0    107.9       54    270.4    209.4      100     0.000     0.000     0.000     0.000      107        0       42       25       14        5        0    15.238       75     40.3    6.139   -9.900     1.62    0.000    0.000       11        9     1987  Maize_short_Chisinau_22May_NonOptimum_85_MOHC.PRM
   Tot(8)       22        5     1988    311.4    459.2   1267.4   351.45      0.0    269.3     42.1     29.3      0.0    109.3       61    276.0    215.1       96     0.000     0.000     0.000     0.000      107        0       42       25       10        3        3    15.422       72     40.1    6.188   -9.900     1.61    0.000    0.000       11        9     1988  Maize_short_Chisinau_22May_NonOptimum_85_MOHC.PRM
   Tot(9)       22        5     1989    328.6    451.3   1181.5   352.89      0.0    298.7     29.9      2.2      0.0    122.8       64    266.6    207.0      100     0.000     0.000     0.000     0.000      107        0       42       25       12        6        0    15.980       74     40.2    6.426   -9.900     1.65    0.000    0.000       11        9     1989  Maize_short_Chisinau_22May_NonOptimum_85_MOHC.PRM
  Tot(10)       22        5     1990    157.0    493.1   1149.4   354.16      0.0    152.3      4.7     14.4      0.0    127.9       58    226.3    177.9       85     0.000     0.000     0.000     0.000      107        0       42       25       15       11       15    12.373       58     40.0    4.945   -9.900     1.40    0.000    0.000       11        9     1990  Maize_short_Chisinau_22May_NonOptimum_85_MOHC.PRM
  Tot(11)       22        5     1991    405.5    420.3   1208.7   355.48      0.0    355.8     49.7     77.0      0.0    124.2       75    257.2    197.9      100     0.000     0.000     0.000     0.000      107        0       42       25       12        1        0    16.406       75     40.0    6.569   -9.900     1.72    0.000    0.000       11        9     1991  Maize_short_Chisinau_22May_NonOptimum_85_MOHC.PRM
  Tot(12)       22        5     1992    188.3    518.5   1278.0   356.27      0.0    184.1      4.2      9.8      0.0    142.9       69    245.6    192.9       80     0.000     0.000     0.000     0.000      107        0       42       25       10       10       15    12.174       55     39.8    4.839   -9.900     1.25    0.000    0.000       11        9     1992  Maize_short_Chisinau_22May_NonOptimum_85_MOHC.PRM
  Tot(13)       22        5     1993    166.0    491.7   1142.1   356.95      0.0    165.4      0.6      0.6      0.0    100.5       48    257.7    198.4       96     0.000     0.000     0.000     0.000      107        0       42       25       16        3        3    14.101       71     40.1    5.653   -9.900     1.58    0.000    0.000       11        9     1993  Maize_short_Chisinau_22May_NonOptimum_85_MOHC.PRM
  Tot(14)       22        5     1994    259.6    519.0   1314.2   358.63      0.0    220.5     39.1     11.8      0.0    105.0       44    265.8    208.4       90     0.000     0.000     0.000     0.000      107        0       42       25       10       12        6    14.401       63     40.5    5.825   -9.900     1.57    0.000    0.000       11        9     1994  Maize_short_Chisinau_22May_NonOptimum_85_MOHC.PRM
  Tot(15)       22        5     1995    240.9    497.5   1341.7   360.62      0.0    225.7     15.2      1.4      0.0     92.6       40    269.9    210.0       96     0.000     0.000     0.000     0.000      107        0       42       25        5        7        2    15.683       70     40.2    6.306   -9.900     1.74    0.000    0.000       11        9     1995  Maize_short_Chisinau_22May_NonOptimum_85_MOHC.PRM
  Tot(16)       22        5     1996    178.3    510.0   1221.6   362.37      0.0    174.6      3.7      2.9      0.0     99.7       37    225.6    178.8       92     0.000     0.000     0.000     0.000      107        0       42       25       12       18        5    13.184       63     40.6    5.346   -9.900     1.64    0.000    0.000       11        9     1996  Maize_short_Chisinau_22May_NonOptimum_85_MOHC.PRM
  Tot(17)       22        5     1997    330.1    417.1   1153.3   363.47      0.0    310.1     20.0      0.0      0.0    110.0       60    233.5    180.9      100     0.000     0.000     0.000     0.000      107        0       42       25       13        0        0    16.205       75     40.0    6.482   -9.900     1.89    0.000    0.000       11        9     1997  Maize_short_Chisinau_22May_NonOptimum_85_MOHC.PRM
  Tot(18)       22        5     1998    213.1    479.8   1242.4   366.50      0.0    207.8      5.3      0.7      0.0    115.1       59    266.4    205.5       95     0.000     0.000     0.000     0.000      107        0       42       25       13        2        3    14.606       71     40.1    5.854   -9.900     1.53    0.000    0.000       11        9     1998  Maize_short_Chisinau_22May_NonOptimum_85_MOHC.PRM
  Tot(19)       22        5     1999    155.4    516.5   1415.8   368.14      0.0    153.9      1.5      0.0      0.0    105.1       43    252.3    197.1       88     0.000     0.000     0.000     0.000      107        0       42       25        3       15        9    14.276       62     40.5    5.782   -9.900     1.62    0.000    0.000       11        9     1999  Maize_short_Chisinau_22May_NonOptimum_85_MOHC.PRM
  Tot(20)       22        5     2000    200.0    540.4   1259.7   369.41      0.0    193.4      6.6      0.0      0.0     72.3       28    279.5    218.2       97     0.000     0.000     0.000     0.000      107        0       42       25       12        8        1    15.054       70     40.1    6.033   -9.900     1.72    0.000    0.000       11        9     2000  Maize_short_Chisinau_22May_NonOptimum_85_MOHC.PRM
  Tot(21)       22        5     2001    281.1    504.5   1316.2   371.07      0.0    245.1     36.0     26.0      0.0    132.2       60    241.5    189.5       84     0.000     0.000     0.000     0.000      107        0       42       25        9        8       12    12.731       56     39.8    5.068   -9.900     1.36    0.000    0.000       11        9     2001  Maize_short_Chisinau_22May_NonOptimum_85_MOHC.PRM
  Tot(22)       22        5     2002    297.2    513.7   1401.0   373.16      0.0    270.0     27.2      3.8      0.0    111.4       47    297.6    232.6      100     0.000     0.000     0.000     0.000      107        0       42       25        5       10        0    16.950       72     40.0    6.784   -9.900     1.66    0.000    0.000       11        9     2002  Maize_short_Chisinau_22May_NonOptimum_85_MOHC.PRM
  Tot(23)       22        5     2003    199.3    543.0   1313.0   375.80      0.0    197.8      1.5      0.0      0.0     98.0       37    284.3    220.5       99     0.000     0.000     0.000     0.000      107        0       42       25        8        4        1    15.842       72     40.0    6.343   -9.900     1.66    0.000    0.000       11        9     2003  Maize_short_Chisinau_22May_NonOptimum_85_MOHC.PRM
  Tot(24)       22        5     2004    212.6    500.0   1203.6   377.49      0.0    201.0     11.6      4.7      0.0    100.0       44    275.9    215.6      100     0.000     0.000     0.000     0.000      107        0       42       25       11        5        0    16.207       74     40.1    6.504   -9.900     1.73    0.000    0.000       11        9     2004  Maize_short_Chisinau_22May_NonOptimum_85_MOHC.PRM
  Tot(25)       22        5     2005    280.2    489.9   1320.0   379.80      0.0    268.2     12.0      8.5      0.0    136.2       63    286.2    220.0      100     0.000     0.000     0.000     0.000      107        0       42       25        7        4        0    17.321       75     40.3    6.975   -9.900     1.65    0.000    0.000       11        9     2005  Maize_short_Chisinau_22May_NonOptimum_85_MOHC.PRM
  Tot(26)       22        5     2006    278.5    526.4   1284.9   381.90      0.0    269.3      9.2     16.0      0.0    136.6       60    298.8    233.7       97     0.000     0.000     0.000     0.000      107        0       42       25       10       10        3    15.974       71     40.5    6.474   -9.900     1.49    0.000    0.000       11        9     2006  Maize_short_Chisinau_22May_NonOptimum_85_MOHC.PRM
  Tot(27)       22        5     2007    161.9    617.8   1470.3   383.77      0.0    161.4      0.5      0.0      0.0    116.1       35    245.5    195.4       83     0.000     0.000     0.000     0.000      107        0       42       25        4       26       12    11.921       52     40.6    4.839   -9.900     1.34    0.000    0.000       11        9     2007  Maize_short_Chisinau_22May_NonOptimum_85_MOHC.PRM
  Tot(28)       22        5     2008    182.6    561.4   1363.1   385.59      0.0    176.9      5.7      0.0      0.0    116.7       46    277.8    217.6       87     0.000     0.000     0.000     0.000      107        0       42       25        5        9       11    14.297       61     39.7    5.677   -9.900     1.44    0.000    0.000       11        9     2008  Maize_short_Chisinau_22May_NonOptimum_85_MOHC.PRM
  Tot(29)       22        5     2009    196.0    575.6   1374.3   387.37      0.0    194.3      1.7      0.0      0.0    110.1       41    287.8    222.7       89     0.000     0.000     0.000     0.000      107        0       42       25        5       10        9    14.566       62     40.2    5.853   -9.900     1.47    0.000    0.000       11        9     2009  Maize_short_Chisinau_22May_NonOptimum_85_MOHC.PRM
  Tot(30)       22        5     2010    257.3    510.9   1415.8   389.85      0.0    240.3     17.0     19.1      0.0    119.7       54    279.4    217.9       93     0.000     0.000     0.000     0.000      107        0       42       25        7        2        4    15.516       69     40.0    6.199   -9.900     1.55    0.000    0.000       11        9     2010  Maize_short_Chisinau_22May_NonOptimum_85_MOHC.PRM
  Tot(31)       22        5     2011    216.4    549.6   1380.9   391.63      0.0    201.6     14.8     17.5      0.0    132.6       53    266.5    207.5       86     0.000     0.000     0.000     0.000      107        0       42       25        5        6       12    14.154       61     39.8    5.628   -9.900     1.41    0.000    0.000       11        9     2011  Maize_short_Chisinau_22May_NonOptimum_85_MOHC.PRM
  Tot(32)       22        5     2012    177.6    615.9   1446.5   393.82      0.0    168.8      8.8     12.1      0.0    107.7       37    267.2    210.4       81     0.000     0.000     0.000     0.000      107        0       42       25        4       16       16    12.383       53     40.1    4.966   -9.900     1.32    0.000    0.000       11        9     2012  Maize_short_Chisinau_22May_NonOptimum_85_MOHC.PRM
  Tot(33)       22        5     2013    299.8    518.6   1351.6   396.48      0.0    269.2     30.6     27.2      0.0    140.8       64    290.2    224.6       94     0.000     0.000     0.000     0.000      107        0       42       25        6        5        4    16.099       70     40.2    6.475   -9.900     1.50    0.000    0.000       11        9     2013  Maize_short_Chisinau_22May_NonOptimum_85_MOHC.PRM
  Tot(34)       22        5     2014    198.3    560.2   1404.9   398.55      0.0    195.8      2.5      1.7      0.0    113.0       48    296.0    230.5       88     0.000     0.000     0.000     0.000      107        0       42       25        5        6       10    15.018       63     39.9    5.993   -9.900     1.47    0.000    0.000       11        9     2014  Maize_short_Chisinau_22May_NonOptimum_85_MOHC.PRM
  Tot(35)       22        5     2015    123.3    607.4   1433.1   402.00      0.0    122.9      0.4      0.0      0.0    109.3       35    226.7    179.2       79     0.000     0.000     0.000     0.000      104        0       42       25        5       18       19    10.850       46     40.0    4.338   -9.900     1.29    0.000    0.000       11        9     2015  Maize_short_Chisinau_22May_NonOptimum_85_MOHC.PRM
  Tot(36)       22        5     2016    224.9    558.8   1444.3   404.00      0.0    206.2     18.7     39.9      0.0    145.6       57    239.6    188.1       80     0.000     0.000     0.000     0.000      107        0       42       25        4       17       19    11.878       50     40.0    4.746   -9.900     1.23    0.000    0.000       11        9     2016  Maize_short_Chisinau_22May_NonOptimum_85_MOHC.PRM
  Tot(37)       22        5     2017    256.1    554.9   1388.6   407.00      0.0    243.1     13.0      9.7      0.0    125.5       53    314.5    242.9       96     0.000     0.000     0.000     0.000      107        0       42       25        5        4        4    16.422       70     40.1    6.579   -9.900     1.49    0.000    0.000       11        9     2017  Maize_short_Chisinau_22May_NonOptimum_85_MOHC.PRM
  Tot(38)       22        5     2018    285.1    545.5   1487.3   410.00      0.0    268.7     16.4     20.6      0.0    120.4       48    304.0    235.9       96     0.000     0.000     0.000     0.000      107        0       42       25        3        2        3    17.011       71     39.9    6.796   -9.900     1.60    0.000    0.000       11        9     2018  Maize_short_Chisinau_22May_NonOptimum_85_MOHC.PRM
  Tot(39)       22        5     2019    214.6    570.8   1477.1   413.00      0.0    207.5      7.1     13.9      0.0    141.2       55    273.3    213.6       86     0.000     0.000     0.000     0.000      107        0       42       25        2       11       12    14.316       60     40.0    5.728   -9.900     1.38    0.000    0.000       11        9     2019  Maize_short_Chisinau_22May_NonOptimum_85_MOHC.PRM
  Tot(40)       22        5     2020     80.9    669.7   1570.0   416.00      0.0     74.9      6.0     12.0      0.0     83.7       22    186.2    149.1       73     0.000     0.000     0.000     0.000       90        0       42       25        3       27       20     7.972       33     27.0    2.155   -9.900     0.81    0.000    0.000       11        9     2020  Maize_short_Chisinau_22May_NonOptimum_85_MOHC.PRM
  Tot(41)       22        5     2021     28.0    752.4   1628.0   419.00      0.0     28.0      0.0      0.0      0.0     62.0       11    164.5    134.8       78     0.000     0.000     0.000     0.000       91        0       42       25        1       37       17     6.526       27     28.1    1.836   -9.900     0.81    0.000    0.000       11        9     2021  Maize_short_Chisinau_22May_NonOptimum_85_MOHC.PRM
  Tot(42)       22        5     2022     83.4    648.7   1541.6   422.00      0.0     83.1      0.3      0.0      0.0    100.6       27    187.5    149.3       72     0.000     0.000     0.000     0.000       90        0       42       25        4       25       20     7.953       33      8.6    0.681   -9.900     0.24    0.000    0.000       11        9     2022  Maize_short_Chisinau_22May_NonOptimum_85_MOHC.PRM
  Tot(43)       22        5     2023     85.3    636.9   1471.9   425.00      0.0     85.3      0.0      0.0      0.0    104.2       27    173.1    139.2       74     0.000     0.000     0.000     0.000       88        0       42       25        2       32       20     7.056       30     24.9    1.759   -9.900     0.66    0.000    0.000       11        9     2023  Maize_short_Chisinau_22May_NonOptimum_85_MOHC.PRM
  Tot(44)       22        5     2024     61.0    687.0   1627.9   428.00      0.0     59.9      1.1      1.9      0.0     84.7       20    176.9    141.7       73     0.000     0.000     0.000     0.000       89        0       42       25        1       29       21     7.639       31     25.8    1.969   -9.900     0.76    0.000    0.000       11        9     2024  Maize_short_Chisinau_22May_NonOptimum_85_MOHC.PRM
  Tot(45)       22        5     2025    209.7    594.3   1480.1   431.00      0.0    183.6     26.1      8.7      0.0    124.4       46    255.7    200.5       79     0.000     0.000     0.000     0.000      107        0       42       25        6       21       14    12.499       54     40.4    5.048   -9.900     1.33    0.000    0.000       11        9     2025  Maize_short_Chisinau_22May_NonOptimum_85_MOHC.PRM
  Tot(46)       22        5     2026    212.3    653.3   1534.6   435.00      0.0    191.0     21.3      5.6      0.0    139.2       38    192.0    154.0       69     0.000     0.000     0.000     0.000      107        0       42       25        7       26       20     8.250       35     39.7    3.275   -9.900     0.99    0.000    0.000       11        9     2026  Maize_short_Chisinau_22May_NonOptimum_85_MOHC.PRM
  Tot(47)       22        5     2027    143.5    578.3   1531.7   438.00      0.0    143.5      0.0      0.0      0.0    104.4       37    239.0    187.7       81     0.000     0.000     0.000     0.000      107        0       42       25        3       12       16    12.135       50     39.6    4.804   -9.900     1.40    0.000    0.000       11        9     2027  Maize_short_Chisinau_22May_NonOptimum_85_MOHC.PRM
  Tot(48)       22        5     2028     74.3    696.8   1584.6   442.00      0.0     74.3      0.0      0.0      0.0     96.6       23    173.7    139.7       71     0.000     0.000     0.000     0.000       84        0       42       25        4       32       21     6.701       27     20.7    1.387   -9.900     0.52    0.000    0.000       11        9     2028  Maize_short_Chisinau_22May_NonOptimum_85_MOHC.PRM
  Tot(49)       22        5     2029    138.4    603.4   1567.0   445.00      0.0    137.0      1.4      1.1      0.0    143.7       44    196.9    156.2       76     0.000     0.000     0.000     0.000       93        0       42       25        1       25       19     9.047       37     30.0    2.711   -9.900     0.82    0.000    0.000       11        9     2029  Maize_short_Chisinau_22May_NonOptimum_85_MOHC.PRM
  Tot(50)       22        5     2030    149.0    611.8   1544.8   449.00      0.0    140.8      8.2     13.3      0.0    139.5       42    196.8    156.5       77     0.000     0.000     0.000     0.000       93        0       42       25        2       26       19     9.113       37     30.2    2.757   -9.900     0.83    0.000    0.000       11        9     2030  Maize_short_Chisinau_22May_NonOptimum_85_MOHC.PRM
  Tot(51)       22        5     2031     62.7    676.4   1635.2   452.00      0.0     62.7      0.0      0.0      0.0     87.3       21    184.1    148.5       75     0.000     0.000     0.000     0.000       93        0       42       25        2       30       19     8.149       33     29.9    2.434   -9.900     0.92    0.000    0.000       11        9     2031  Maize_short_Chisinau_22May_NonOptimum_85_MOHC.PRM
  Tot(52)       22        5     2032    220.4    555.0   1471.8   456.00      0.0    205.8     14.6     36.3      0.0    107.8       40    266.7    210.9       90     0.000     0.000     0.000     0.000      107        0       42       25        5       28        8    14.425       59     40.9    5.894   -9.900     1.57    0.000    0.000       11        9     2032  Maize_short_Chisinau_22May_NonOptimum_85_MOHC.PRM
  Tot(53)       22        5     2033    155.4    675.8   1678.0   460.00      0.0    143.3     12.1     21.0      0.0    121.0       30    203.3    164.2       76     0.000     0.000     0.000     0.000      107        0       42       25        1       28       18     8.984       36     40.1    3.601   -9.900     1.11    0.000    0.000       11        9     2033  Maize_short_Chisinau_22May_NonOptimum_85_MOHC.PRM
  Tot(54)       22        5     2034     54.2    767.0   1729.2   464.00      0.0     52.0      2.2      4.6      0.0     78.7       15    156.9    128.2       73     0.000     0.000     0.000     0.000       82        0       42       25        2       38       20     5.622       23     19.4    1.092   -9.900     0.47    0.000    0.000       11        9     2034  Maize_short_Chisinau_22May_NonOptimum_85_MOHC.PRM
  Tot(55)       22        5     2035     78.1    683.8   1599.0   468.00      0.0     66.1     12.0     21.9      0.0     72.7       18    169.4    135.9       72     0.000     0.000     0.000     0.000       86        0       42       25        5       31       21     7.047       28     22.8    1.606   -9.900     0.67    0.000    0.000       11        9     2035  Maize_short_Chisinau_22May_NonOptimum_85_MOHC.PRM
  Tot(56)       22        5     2036     78.3    732.2   1759.0   472.00      0.0     76.7      1.6      0.0      0.0     79.3       18    208.6    168.1       75     0.000     0.000     0.000     0.000       95        0       42       25        0       29       20     8.369       33     31.8    2.662   -9.900     0.93    0.000    0.000       11        9     2036  Maize_short_Chisinau_22May_NonOptimum_85_MOHC.PRM
  Tot(57)       22        5     2037    240.2    543.5   1370.5   476.00      0.0    161.6     78.6      6.9      0.0    103.9       40    238.2    189.1       85     0.000     0.000     0.000     0.000      107        0       42       25        9       26        9    12.590       53     40.6    5.117   -9.900     1.50    0.000    0.000       11        9     2037  Maize_short_Chisinau_22May_NonOptimum_85_MOHC.PRM
  Tot(58)       22        5     2038    254.3    555.9   1571.4   481.00      0.0    190.4     63.9     62.5      0.0    114.3       48    231.1    182.3       78     0.000     0.000     0.000     0.000      100        0       42       25        5       16       20    11.050       44     36.6    4.046   -9.900     1.18    0.000    0.000       11        9     2038  Maize_short_Chisinau_22May_NonOptimum_85_MOHC.PRM
  Tot(59)       22        5     2039     95.0    725.9   1733.0   485.00      0.0     94.3      0.7      0.5      0.0    115.8       25    181.2    146.3       73     0.000     0.000     0.000     0.000       89        0       42       25        1       33       21     7.413       30     25.8    1.909   -9.900     0.65    0.000    0.000       11        9     2039  Maize_short_Chisinau_22May_NonOptimum_85_MOHC.PRM
  Tot(60)       22        5     2040     31.0    794.9   1784.7   489.00      0.0     31.0      0.0      0.0      0.0     68.1       11    155.7    128.2       80     0.000     0.000     0.000     0.000       92        0       42       25        0       40       16     6.181       25     29.4    1.815   -9.900     0.82    0.000    0.000       11        9     2040  Maize_short_Chisinau_22May_NonOptimum_85_MOHC.PRM
  Tot(61)       22        5     2041     43.9    793.2   1736.3   494.00      0.0     43.9      0.0      0.0      0.0     70.6       13    169.7    137.4       69     0.000     0.000     0.000     0.000       85        0       42       25        2       34       21     6.282       25      5.7    0.357   -9.900     0.15    0.000    0.000       11        9     2041  Maize_short_Chisinau_22May_NonOptimum_85_MOHC.PRM
  Tot(62)       22        5     2042    228.5    639.6   1566.4   499.00      0.0    187.6     40.9     38.8      0.0    111.8       37    254.3    199.2       79     0.000     0.000     0.000     0.000      102        0       42       25        2       10       19    11.443       46     38.2    4.375   -9.900     1.20    0.000    0.000       11        9     2042  Maize_short_Chisinau_22May_NonOptimum_85_MOHC.PRM
  Tot(63)       22        5     2043     42.8    854.8   1833.6   504.00      0.0     42.8      0.0      0.0      0.0     63.9        9    149.4    124.0       79     0.000     0.000     0.000     0.000       92        0       42       25        0       42       16     5.266       21     23.2    1.221   -9.900     0.62    0.000    0.000       11        9     2043  Maize_short_Chisinau_22May_NonOptimum_85_MOHC.PRM
  Tot(64)       22        5     2044    129.3    668.3   1679.3   508.00      0.0    125.5      3.8      1.9      0.0    117.1       34    219.0    172.5       75     0.000     0.000     0.000     0.000       94        0       42       25        1       21       21     9.442       38     30.6    2.893   -9.900     0.86    0.000    0.000       11        9     2044  Maize_short_Chisinau_22May_NonOptimum_85_MOHC.PRM
  Tot(65)       22        5     2045     86.1    664.6   1566.4   513.00      0.0     86.0      0.1      0.0      0.0     97.8       26    182.8    146.2       70     0.000     0.000     0.000     0.000      107        0       42       25        2       30       20     7.833       32     39.9    3.124   -9.900     1.11    0.000    0.000       11        9     2045  Maize_short_Chisinau_22May_NonOptimum_85_MOHC.PRM
  Tot(66)       22        5     2046    125.5    654.8   1639.6   519.00      0.0    120.3      5.2      8.0      0.0    122.9       33    191.7    153.0       74     0.000     0.000     0.000     0.000       91        0       42       25        1       27       20     8.241       33     27.9    2.296   -9.900     0.75    0.000    0.000       11        9     2046  Maize_short_Chisinau_22May_NonOptimum_85_MOHC.PRM
  Tot(67)       22        5     2047     44.6    796.5   1795.8   524.00      0.0     44.0      0.6      0.0      0.0     77.2       13    151.2    124.6       79     0.000     0.000     0.000     0.000       88        0       42       25        0       40       17     5.655       23     24.1    1.362   -9.900     0.61    0.000    0.000       11        9     2047  Maize_short_Chisinau_22May_NonOptimum_85_MOHC.PRM
  Tot(68)       22        5     2048     85.1    695.3   1733.2   529.00      0.0     83.2      1.9      2.0      0.0    108.6       25    170.3    136.8       72     0.000     0.000     0.000     0.000       86        0       42       25        1       32       21     7.163       29     22.8    1.631   -9.900     0.59    0.000    0.000       11        9     2048  Maize_short_Chisinau_22May_NonOptimum_85_MOHC.PRM
  Tot(69)       22        5     2049     86.7    747.3   1652.3   535.00      0.0     85.9      0.8      0.3      0.0    100.6       21    169.6    137.0       71     0.000     0.000     0.000     0.000       83        0       42       25        1       34       21     6.225       25     11.6    0.721   -9.900     0.28    0.000    0.000       11        9     2049  Maize_short_Chisinau_22May_NonOptimum_85_MOHC.PRM
  Tot(70)       22        5     2050    101.4    719.6   1793.7   541.00      0.0    100.1      1.3      1.1      0.0    120.2       27    186.4    149.2       74     0.000     0.000     0.000     0.000       92        0       42       25        0       28       20     8.437       33     26.4    2.230   -9.900     0.73    0.000    0.000       11        9     2050  Maize_short_Chisinau_22May_NonOptimum_85_MOHC.PRM
  Tot(71)       22        5     2051     51.7    693.1   1648.2   546.00      0.0     48.8      2.9      6.0      0.0     67.5       16    172.1    138.7       74     0.000     0.000     0.000     0.000       87        0       42       25        1       34       20     6.997       28     12.5    0.871   -9.900     0.37    0.000    0.000       11        9     2051  Maize_short_Chisinau_22May_NonOptimum_85_MOHC.PRM
  Tot(72)       22        5     2052    127.7    713.3   1651.9   552.00      0.0    123.4      4.3      4.8      0.0    130.3       28    164.8    133.2       73     0.000     0.000     0.000     0.000      107        0       42       25        1       34       18     6.610       26     35.1    2.321   -9.900     0.79    0.000    0.000       11        9     2052  Maize_short_Chisinau_22May_NonOptimum_85_MOHC.PRM
  Tot(73)       22        5     2053     90.9    667.0   1719.2   558.00      0.0     89.9      1.0      0.0      0.0    108.8       29    181.0    144.2       71     0.000     0.000     0.000     0.000       88        0       42       25        1       26       21     7.961       32     23.9    1.900   -9.900     0.66    0.000    0.000       11        9     2053  Maize_short_Chisinau_22May_NonOptimum_85_MOHC.PRM
  Tot(74)       22        5     2054    121.6    674.2   1737.1   564.00      0.0    110.8     10.8     26.8      0.0    104.0       26    170.1    136.9       70     0.000     0.000     0.000     0.000       85        0       42       25        1       32       21     6.750       27     18.1    1.223   -9.900     0.47    0.000    0.000       11        9     2054  Maize_short_Chisinau_22May_NonOptimum_85_MOHC.PRM
  Tot(75)       22        5     2055     65.5    733.7   1720.9   571.00      0.0     62.3      3.2      8.7      0.0     81.1       17    162.5    131.7       73     0.000     0.000     0.000     0.000       83        0       42       25        2       35       20     6.264       25     20.4    1.280   -9.900     0.54    0.000    0.000       11        9     2055  Maize_short_Chisinau_22May_NonOptimum_85_MOHC.PRM
  Tot(76)       22        5     2056    216.4    632.1   1612.8   577.00      0.0    152.3     64.1     36.4      0.0    110.1       36    206.9    163.6       70     0.000     0.000     0.000     0.000      107        0       42       25        2       23       23     9.526       38     26.4    2.515   -9.900     0.79    0.000    0.000       11        9     2056  Maize_short_Chisinau_22May_NonOptimum_85_MOHC.PRM
  Tot(77)       22        5     2057    188.3    629.8   1633.9   583.00      0.0    182.5      5.8      3.3      0.0    138.2       44    214.9    169.2       76     0.000     0.000     0.000     0.000       96        0       42       25        1       17       20    10.137       40     32.7    3.311   -9.900     0.96    0.000    0.000       11        9     2057  Maize_short_Chisinau_22May_NonOptimum_85_MOHC.PRM
  Tot(78)       22        5     2058     48.6    771.0   1807.5   590.00      0.0     48.6      0.0      0.0      0.0     78.2       15    161.7    131.6       75     0.000     0.000     0.000     0.000       85        0       42       25        2       36       19     6.335       25     22.0    1.393   -9.900     0.59    0.000    0.000       11        9     2058  Maize_short_Chisinau_22May_NonOptimum_85_MOHC.PRM
  Tot(79)       22        5     2059    170.9    624.7   1720.7   597.00      0.0    169.8      1.1      2.0      0.0    139.4       50    243.6    190.8       77     0.000     0.000     0.000     0.000      102        0       42       25        1       10       19    11.723       46     38.4    4.502   -9.900     1.18    0.000    0.000       11        9     2059  Maize_short_Chisinau_22May_NonOptimum_85_MOHC.PRM
  Tot(80)       22        5     2060    105.9    813.7   1890.7   604.00      0.0    104.3      1.6      0.0      0.0    105.2       18    160.7    131.2       74     0.000     0.000     0.000     0.000       86        0       42       25        0       37       19     5.947       24     22.0    1.306   -9.900     0.51    0.000    0.000       11        9     2060  Maize_short_Chisinau_22May_NonOptimum_85_MOHC.PRM
  Tot(81)       22        5     2061     54.2    760.1   1785.4   611.00      0.0     53.8      0.4      0.0      0.0     67.3       13    155.4    126.6       73     0.000     0.000     0.000     0.000       83        0       42       25        1       37       19     5.807       23      7.5    0.434   -9.900     0.20    0.000    0.000       11        9     2061  Maize_short_Chisinau_22May_NonOptimum_85_MOHC.PRM
  Tot(82)       22        5     2062     98.3    779.5   1866.9   618.00      0.0     92.9      5.4      0.0      0.0    102.8       19    158.3    128.9       73     0.000     0.000     0.000     0.000       83        0       42       25        0       37       20     5.931       23     20.4    1.207   -9.900     0.53    0.000    0.000       11        9     2062  Maize_short_Chisinau_22May_NonOptimum_85_MOHC.PRM
  Tot(83)       22        5     2063     83.9    703.9   1777.4   625.00      0.0     78.7      5.2     12.0      0.0     90.9       22    175.8    140.8       70     0.000     0.000     0.000     0.000       87        0       42       25        1       30       21     7.539       30     20.6    1.551   -9.900     0.60    0.000    0.000       11        9     2063  Maize_short_Chisinau_22May_NonOptimum_85_MOHC.PRM
  Tot(84)       22        5     2064     58.0    735.5   1914.2   632.00      0.0     58.0      0.0      0.0      0.0     88.0       18    170.1    137.5       76     0.000     0.000     0.000     0.000       90        0       42       25        0       34       19     7.451       29     27.1    2.016   -9.900     0.80    0.000    0.000       11        9     2064  Maize_short_Chisinau_22May_NonOptimum_85_MOHC.PRM
  Tot(85)       22        5     2065     33.3    709.3   1756.1   639.00      0.0     33.3      0.0      0.0      0.0     61.7       13    172.3    139.8       77     0.000     0.000     0.000     0.000       93        0       42       25        1       34       18     7.761       31     30.2    2.340   -9.900     1.01    0.000    0.000       11        9     2065  Maize_short_Chisinau_22May_NonOptimum_85_MOHC.PRM
  Tot(86)       22        5     2066     67.7    724.1   1799.9   647.00      0.0     67.5      0.2      0.0      0.0     85.7       19    178.2    143.6       73     0.000     0.000     0.000     0.000       95        0       42       25        1       31       19     7.503       30     30.4    2.283   -9.900     0.87    0.000    0.000       11        9     2066  Maize_short_Chisinau_22May_NonOptimum_85_MOHC.PRM
  Tot(87)       22        5     2067    112.4    790.1   1903.9   654.00      0.0    111.4      1.0      0.0      0.0    133.1       26    175.3    141.0       71     0.000     0.000     0.000     0.000       85        0       42       25        0       31       21     6.837       27      9.7    0.666   -9.900     0.22    0.000    0.000       11        9     2067  Maize_short_Chisinau_22May_NonOptimum_85_MOHC.PRM
  Tot(88)       22        5     2068    113.5    671.9   1772.3   662.00      0.0    110.2      3.3      0.0      0.0     78.9       25    253.8    198.6       77     0.000     0.000     0.000     0.000      106        0       42       25        0        8       20    12.345       49     38.8    4.785   -9.900     1.44    0.000    0.000       11        9     2068  Maize_short_Chisinau_22May_NonOptimum_85_MOHC.PRM
  Tot(89)       22        5     2069    138.8    668.7   1793.8   669.00      0.0    126.9     11.9     18.0      0.0    108.5       33    213.0    167.5       73     0.000     0.000     0.000     0.000      107        0       42       25        1       19       30     9.615       38     11.8    1.137   -9.900     0.35    0.000    0.000       11        9     2069  Maize_short_Chisinau_22May_NonOptimum_85_MOHC.PRM
  Tot(90)       22        5     2070     47.7    753.3   1828.1   677.00      0.0     40.3      7.4     14.0      0.0     58.2       12    162.6    131.3       71     0.000     0.000     0.000     0.000       85        0       42       25        0       33       21     6.575       26     13.4    0.879   -9.900     0.40    0.000    0.000       11        9     2070  Maize_short_Chisinau_22May_NonOptimum_85_MOHC.PRM
  Tot(91)       22        5     2071    100.2    745.5   1848.8   685.00      0.0     97.1      3.1      0.0      0.0     87.7       18    165.2    133.7       72     0.000     0.000     0.000     0.000       84        0       42       25        1       35       21     6.203       25     20.8    1.292   -9.900     0.55    0.000    0.000       11        9     2071  Maize_short_Chisinau_22May_NonOptimum_85_MOHC.PRM
  Tot(92)       22        5     2072     94.2    745.9   1855.2   693.00      0.0     84.4      9.8     14.1      0.0     95.3       21    170.4    136.9       71     0.000     0.000     0.000     0.000       85        0       42       25        0       32       21     6.904       27      5.4    0.370   -9.900     0.14    0.000    0.000       11        9     2072  Maize_short_Chisinau_22May_NonOptimum_85_MOHC.PRM
  Tot(93)       22        5     2073    127.3    686.9   1748.5   701.00      0.0    124.6      2.7      0.0      0.0    116.2       31    191.5    151.9       73     0.000     0.000     0.000     0.000       90        0       42       25        1       25       21     8.446       34     27.0    2.282   -9.900     0.77    0.000    0.000       11        9     2073  Maize_short_Chisinau_22May_NonOptimum_85_MOHC.PRM
  Tot(94)       22        5     2074     65.2    774.6   1838.5   709.00      0.0     64.7      0.5      0.0      0.0     84.3       18    179.5    144.2       71     0.000     0.000     0.000     0.000       87        0       42       25        0       31       21     7.025       28     11.3    0.792   -9.900     0.30    0.000    0.000       11        9     2074  Maize_short_Chisinau_22May_NonOptimum_85_MOHC.PRM
  Tot(95)       22        5     2075     36.4    756.1   1888.2   717.00      0.0     36.4      0.0      0.0      0.0     65.6       12    155.8    127.3       77     0.000     0.000     0.000     0.000       89        0       42       25        0       37       18     6.292       25     25.6    1.613   -9.900     0.75    0.000    0.000       11        9     2075  Maize_short_Chisinau_22May_NonOptimum_85_MOHC.PRM
  Tot(96)       22        5     2076     94.2    729.9   1800.3   725.00      0.0     80.3     13.9     25.8      0.0     83.2       18    169.0    136.4       73     0.000     0.000     0.000     0.000       87        0       42       25        3       33       20     7.051       28      9.7    0.683   -9.900     0.27    0.000    0.000       11        9     2076  Maize_short_Chisinau_22May_NonOptimum_85_MOHC.PRM
  Tot(97)       22        5     2077    120.6    697.1   1791.4   733.00      0.0    109.2     11.4      0.0      0.0     97.8       24    178.1    142.3       71     0.000     0.000     0.000     0.000      107        0       42       25        1       29       16     7.822       31     31.1    2.430   -9.900     0.88    0.000    0.000       11        9     2077  Maize_short_Chisinau_22May_NonOptimum_85_MOHC.PRM
  Tot(98)       22        5     2078    114.4    667.5   1833.3   742.00      0.0    114.0      0.4      0.0      0.0    114.0       36    212.0    167.4       71     0.000     0.000     0.000     0.000      107        0       42       25        1       20       23    10.496       42     16.4    1.723   -9.900     0.53    0.000    0.000       11        9     2078  Maize_short_Chisinau_22May_NonOptimum_85_MOHC.PRM
  Tot(99)       22        5     2079     59.3    754.7   1872.7   750.00      0.0     57.8      1.5     10.7      0.0     76.0       15    156.6    127.9       76     0.000     0.000     0.000     0.000       85        0       42       25        3       37       19     5.952       24     21.1    1.257   -9.900     0.54    0.000    0.000       11        9     2079  Maize_short_Chisinau_22May_NonOptimum_85_MOHC.PRM
 Tot(100)       22        5     2080    118.2    793.7   1953.3   758.00      0.0    118.1      0.1      0.0      0.0    130.8       24    194.3    159.4       79     0.000     0.000     0.000     0.000      105        0       42       25        0       39       20     7.969       32     30.8    2.453   -9.900     0.76    0.000    0.000       11        9     2080  Maize_short_Chisinau_22May_NonOptimum_85_MOHC.PRM
 Tot(101)       22        5     2081    113.5    731.9   1934.8   767.00      0.0    106.9      6.6      0.0      0.0    120.6       28    191.8    152.8       71     0.000     0.000     0.000     0.000       94        0       42       25        0       24       20     8.380       34      2.8    0.234   -9.900     0.08    0.000    0.000       11        9     2081  Maize_short_Chisinau_22May_NonOptimum_85_MOHC.PRM
 Tot(102)       22        5     2082     58.9    786.9   1978.0   775.00      0.0     58.1      0.8      0.0      0.0     86.1       17    168.6    136.0       71     0.000     0.000     0.000     0.000       86        0       42       25        0       32       20     6.763       27      0.6    0.043   -9.900     0.02    0.000    0.000       11        9     2082  Maize_short_Chisinau_22May_NonOptimum_85_MOHC.PRM
 Tot(103)       22        5     2083     72.2    796.3   1911.5   784.00      0.0     65.2      7.0      7.3      0.0     90.0       17    155.1    126.0       73     0.000     0.000     0.000     0.000       83        0       42       25        1       36       20     5.892       24      3.2    0.187   -9.900     0.08    0.000    0.000       11        9     2083  Maize_short_Chisinau_22May_NonOptimum_85_MOHC.PRM
 Tot(104)       22        5     2084    100.9    711.2   1817.7   792.00      0.0     81.4     19.5     52.7      0.0     55.1       14    174.2    139.5       71     0.000     0.000     0.000     0.000       88        0       42       25        2       29       20     7.562       31      0.4    0.027   -9.900     0.01    0.000    0.000       11        9     2084  Maize_short_Chisinau_22May_NonOptimum_85_MOHC.PRM
 Tot(105)       22        5     2085     71.5    803.0   2017.4   801.00      0.0     70.5      1.0      1.1      0.0     93.6       17    169.6    138.0       75     0.000     0.000     0.000     0.000       92        0       42       25        0       35       18     6.951       28      1.8    0.126   -9.900     0.05    0.000    0.000       11        9     2085  Maize_short_Chisinau_22May_NonOptimum_85_MOHC.PRM
 Tot(106)       22        5     2086     81.2    754.4   1905.7   810.00      0.0     81.0      0.2      0.0      0.0    105.3       22    163.0    131.4       73     0.000     0.000     0.000     0.000       88        0       42       25        0       33       19     6.851       28     25.0    1.714   -9.900     0.67    0.000    0.000       11        9     2086  Maize_short_Chisinau_22May_NonOptimum_85_MOHC.PRM
 Tot(107)       22        5     2087     20.3    853.2   2009.4   818.00      0.0     20.3      0.0      0.0      0.0     59.6        9    151.0    124.1       77     0.000     0.000     0.000     0.000       91        0       42       25        0       39       17     5.684       23     25.4    1.445   -9.900     0.69    0.000    0.000       11        9     2087  Maize_short_Chisinau_22May_NonOptimum_85_MOHC.PRM
 Tot(108)       22        5     2088     19.8    885.0   1962.9   827.00      0.0     19.8      0.0      0.0      0.0     59.4        8    146.9    122.2       82     0.000     0.000     0.000     0.000       98        0       42       25        0       43       15     5.328       22     10.1    0.538   -9.900     0.26    0.000    0.000       11        9     2088  Maize_short_Chisinau_22May_NonOptimum_85_MOHC.PRM
 Tot(109)       22        5     2089     36.4    852.1   2003.8   836.00      0.0     36.2      0.2      0.0      0.0     58.7       10    157.0    128.2       75     0.000     0.000     0.000     0.000       84        0       42       25        0       38       19     5.643       23      3.5    0.195   -9.900     0.09    0.000    0.000       11        9     2089  Maize_short_Chisinau_22May_NonOptimum_85_MOHC.PRM
 Tot(110)       22        5     2090    172.9    732.6   1873.5   845.00      0.0    152.1     20.8     43.9      0.0    120.1       29    175.6    140.6       69     0.000     0.000     0.000     0.000       86        0       42       25        0       30       22     7.004       29      1.2    0.087   -9.900     0.03    0.000    0.000       11        9     2090  Maize_short_Chisinau_22May_NonOptimum_85_MOHC.PRM
 Tot(111)       22        5     2091     41.6    894.8   2033.4   854.00      0.0     41.6      0.0      0.0      0.0     74.3       11    153.5    125.7       73     0.000     0.000     0.000     0.000       84        0       42       25        0       38       20     5.366       22      5.9    0.318   -9.900     0.14    0.000    0.000       11        9     2091  Maize_short_Chisinau_22May_NonOptimum_85_MOHC.PRM
 Tot(112)       22        5     2092     40.7    871.7   2000.0   863.00      0.0     40.6      0.1      0.0      0.0     72.9       12    158.5    129.7       74     0.000     0.000     0.000     0.000       87        0       42       25        0       38       19     5.770       24      3.9    0.224   -9.900     0.10    0.000    0.000       11        9     2092  Maize_short_Chisinau_22May_NonOptimum_85_MOHC.PRM
 Tot(113)       22        5     2093     35.9    874.4   2041.0   872.00      0.0     35.9      0.0      0.0      0.0     72.8       12    155.4    126.5       71     0.000     0.000     0.000     0.000       86        0       42       25        0       36       19     5.753       24      0.1    0.004   -9.900     0.00    0.000    0.000       11        9     2093  Maize_short_Chisinau_22May_NonOptimum_85_MOHC.PRM
 Tot(114)       22        5     2094     24.1    864.4   2040.2   881.00      0.0     24.1      0.0      0.0      0.0     62.0       10    154.0    126.4       77     0.000     0.000     0.000     0.000       89        0       42       25        0       39       17     5.915       24     25.5    1.510   -9.900     0.71    0.000    0.000       11        9     2094  Maize_short_Chisinau_22May_NonOptimum_85_MOHC.PRM
 Tot(115)       22        5     2095     13.3    869.6   2026.0   890.00      0.0     13.3      0.0      0.0      0.0     50.2        8    145.7    119.9       76     0.000     0.000     0.000     0.000       86        0       42       25        0       41       18     5.062       21      1.9    0.096   -9.900     0.05    0.000    0.000       11        9     2095  Maize_short_Chisinau_22May_NonOptimum_85_MOHC.PRM
 Tot(116)       22        5     2096     66.1    809.1   2036.0   899.00      0.0     62.6      3.5      6.7      0.0     88.7       16    164.9    133.7       74     0.000     0.000     0.000     0.000       89        0       42       25        0       34       19     6.802       28     14.1    0.959   -9.900     0.38    0.000    0.000       11        9     2096  Maize_short_Chisinau_22May_NonOptimum_85_MOHC.PRM
 Tot(117)       22        5     2097     90.2    788.6   1937.4   908.00      0.0     88.4      1.8      0.0      0.0     98.3       19    193.8    158.6       78     0.000     0.000     0.000     0.000      107        0       42       25        0       38       18     8.092       34     12.6    1.018   -9.900     0.35    0.000    0.000       11        9     2097  Maize_short_Chisinau_22May_NonOptimum_85_MOHC.PRM
 Tot(118)       22        5     2098     61.4    807.5   2014.7   917.00      0.0     61.3      0.1      0.0      0.0     83.5       15    154.8    126.0       72     0.000     0.000     0.000     0.000       85        0       42       25        0       36       20     5.783       24      0.5    0.028   -9.900     0.01    0.000    0.000       11        9     2098  Maize_short_Chisinau_22May_NonOptimum_85_MOHC.PRM
 Tot(119)       22        5     2099    112.7    677.8   1871.3   927.00      0.0    107.0      5.7      9.5      0.0     96.5       32    220.2    172.4       70     0.000     0.000     0.000     0.000      104        0       42       25        1       11       23    10.942       46     14.5    1.582   -9.900     0.50    0.000    0.000       11        9     2099  Maize_short_Chisinau_22May_NonOptimum_85_MOHC.PRM
