AquaCrop 7.0 (August 2022) - Output created on (date) : 23-11-2022   at (time) : 14:36:57

    RunNr     Day1   Month1    Year1     Rain      ETo       GD     CO2      Irri   Infilt   Runoff    Drain   Upflow        E     E/Ex       Tr      TrW   Tr/Trx    SaltIn   SaltOut    SaltUp  SaltProf     Cycle   SaltStr  FertStr  WeedStr  TempStr   ExpStr   StoStr  BioMass  Brelative   HI    Y(dry)  Y(fresh)    WPet      Bin     Bout     DayN   MonthN    YearN
                                           mm       mm  degC.day    ppm        mm       mm       mm       mm       mm       mm        %       mm       mm        %    ton/ha    ton/ha    ton/ha    ton/ha      days       %        %        %        %        %        %    ton/ha        %       %    ton/ha   ton/ha    kg/m3   ton/ha   ton/ha
   Tot(1)        6        6     1981    323.6    420.3   1169.7   340.11      0.0    268.1     55.5     55.9      0.0    129.2       64    209.4    207.8      100     0.000     0.000     0.000     0.000      107        0        0        0       19        7        0    17.556       96     40.4    7.090   -9.900     2.09    0.000    0.000       26        9     1981  Maize_Short_Soroca_6June_Optimum_26_MPI.PRM
   Tot(2)        6        6     1982    276.8    416.0   1171.0   341.22      0.0    237.3     39.5     48.6      0.0    148.1       82    232.7    233.7       97     0.000     0.000     0.000     0.000      107        0        0        0       12        3        3    19.968       93     40.2    8.020   -9.900     2.11    0.000    0.000       26        9     1982  Maize_Short_Soroca_6June_Optimum_26_MPI.PRM
   Tot(3)        6        6     1983    213.6    428.2   1169.7   342.84      0.0    208.8      4.8      6.9      0.0    121.7       64    228.0    228.3      100     0.000     0.000     0.000     0.000      107        0        0        0       13        1        0    19.517       97     40.0    7.809   -9.900     2.23    0.000    0.000       26        9     1983  Maize_Short_Soroca_6June_Optimum_26_MPI.PRM
   Tot(4)        6        6     1984    282.0    406.7   1061.7   344.40      0.0    268.3     13.7     12.2      0.0    154.8       87    216.6    215.2      100     0.000     0.000     0.000     0.000      107        0        0        0       20        1        0    19.322       98     40.1    7.745   -9.900     2.09    0.000    0.000       26        9     1984  Maize_Short_Soroca_6June_Optimum_26_MPI.PRM
   Tot(5)        6        6     1985    357.2    428.1   1082.1   345.87      0.0    308.6     48.6     56.8      0.0    145.6       82    232.9    234.3      100     0.000     0.000     0.000     0.000      107        0        0        0       23        2        1    17.888       97     40.1    7.165   -9.900     1.89    0.000    0.000       26        9     1985  Maize_Short_Soroca_6June_Optimum_26_MPI.PRM
   Tot(6)        6        6     1986    147.6    489.6   1212.2   347.19      0.0    146.7      0.9      0.0      0.0    114.5       49    234.2    234.2       96     0.000     0.000     0.000     0.000      107        0        0        0       17        9        5    17.133       89     40.4    6.915   -9.900     1.98    0.000    0.000       26        9     1986  Maize_Short_Soroca_6June_Optimum_26_MPI.PRM
   Tot(7)        6        6     1987    211.9    451.8   1159.6   348.98      0.0    206.3      5.6      6.4      0.0    114.2       50    205.0    203.2      100     0.000     0.000     0.000     0.000      107        0        0        0       17        6        0    17.270       94     40.0    6.911   -9.900     2.16    0.000    0.000       26        9     1987  Maize_Short_Soroca_6June_Optimum_26_MPI.PRM
   Tot(8)        6        6     1988    248.1    413.1   1202.7   351.45      0.0    238.8      9.3     15.2      0.0    134.4       71    218.9    219.6      100     0.000     0.000     0.000     0.000      107        0        0        0       16        3        0    18.766       97     40.2    7.542   -9.900     2.13    0.000    0.000       26        9     1988  Maize_Short_Soroca_6June_Optimum_26_MPI.PRM
   Tot(9)        6        6     1989    414.3    403.4   1141.8   352.89      0.0    339.5     74.8     37.5      0.0    122.6       65    206.5    206.1      100     0.000     0.000     0.000     0.000      107        0        0        0       16        2        0    18.599       97     40.0    7.445   -9.900     2.26    0.000    0.000       26        9     1989  Maize_Short_Soroca_6June_Optimum_26_MPI.PRM
  Tot(10)        6        6     1990    176.4    440.5   1094.6   354.16      0.0    167.9      8.5     13.1      0.0    123.5       60    210.7    211.7       98     0.000     0.000     0.000     0.000      107        0        0        0       20       12        2    16.365       91     40.6    6.645   -9.900     1.99    0.000    0.000       26        9     1990  Maize_Short_Soroca_6June_Optimum_26_MPI.PRM
  Tot(11)        6        6     1991    371.0    403.5   1213.4   355.48      0.0    322.1     48.9     40.9      0.0    147.2       75    199.8    198.0      100     0.000     0.000     0.000     0.000      107        0        0        0       13        0        0    19.176       97     40.0    7.670   -9.900     2.21    0.000    0.000       26        9     1991  Maize_Short_Soroca_6June_Optimum_26_MPI.PRM
  Tot(12)        6        6     1992    153.8    498.8   1261.7   356.27      0.0    153.4      0.4      0.0      0.0    126.9       53    219.7    221.8       85     0.000     0.000     0.000     0.000      107        0        0        0       15       19        8    14.630       75     40.6    5.936   -9.900     1.71    0.000    0.000       26        9     1992  Maize_Short_Soroca_6June_Optimum_26_MPI.PRM
  Tot(13)        6        6     1993    276.6    430.4   1056.4   356.95      0.0    234.0     42.6      0.0      0.0    116.0       57    211.2    210.0      100     0.000     0.000     0.000     0.000      107        0        0        0       23        5        0    17.462       96     40.3    7.030   -9.900     2.15    0.000    0.000       26        9     1993  Maize_Short_Soroca_6June_Optimum_26_MPI.PRM
  Tot(14)        6        6     1994    213.3    492.9   1309.0   358.63      0.0    170.1     43.2     19.9      0.0     89.2       35    245.3    245.3       95     0.000     0.000     0.000     0.000      107        0        0        0        7       23        3    18.472       82     40.9    7.557   -9.900     2.26    0.000    0.000       26        9     1994  Maize_Short_Soroca_6June_Optimum_26_MPI.PRM
  Tot(15)        6        6     1995    377.3    450.2   1246.1   360.62      0.0    331.3     46.0     26.1      0.0    119.3       55    236.5    237.4      100     0.000     0.000     0.000     0.000      107        0        0        0       13        2        0    19.372       97     40.1    7.764   -9.900     2.18    0.000    0.000       26        9     1995  Maize_Short_Soroca_6June_Optimum_26_MPI.PRM
  Tot(16)        6        6     1996    392.3    424.9   1100.1   362.37      0.0    340.3     52.0     22.4      0.0    133.1       61    197.5    197.6      100     0.000     0.000     0.000     0.000      107        0        0        0       24        2        0    16.650       96     40.1    6.678   -9.900     2.02    0.000    0.000       26        9     1996  Maize_Short_Soroca_6June_Optimum_26_MPI.PRM
  Tot(17)        6        6     1997    318.9    401.6   1109.9   363.47      0.0    300.0     18.9     23.7      0.0    142.6       74    190.5    190.6      100     0.000     0.000     0.000     0.000      107        0        0        0       19        1        0    17.851       97     40.0    7.146   -9.900     2.15    0.000    0.000       26        9     1997  Maize_Short_Soroca_6June_Optimum_26_MPI.PRM
  Tot(18)        6        6     1998    287.9    420.7   1171.6   366.50      0.0    270.1     17.8     35.9      0.0    126.6       70    221.8    221.0      100     0.000     0.000     0.000     0.000      107        0        0        0       20        2        0    17.936       97     40.1    7.196   -9.900     2.07    0.000    0.000       26        9     1998  Maize_Short_Soroca_6June_Optimum_26_MPI.PRM
  Tot(19)        6        6     1999    165.9    483.7   1378.8   368.14      0.0    165.9      0.0      0.0      0.0    116.2       46    239.8    238.9       99     0.000     0.000     0.000     0.000      107        0        0        0        7       13        1    19.803       92     40.5    8.030   -9.900     2.26    0.000    0.000       26        9     1999  Maize_Short_Soroca_6June_Optimum_26_MPI.PRM
  Tot(20)        6        6     2000    297.3    455.6   1161.2   369.41      0.0    282.8     14.5     20.8      0.0    148.9       68    232.4    234.0      100     0.000     0.000     0.000     0.000      107        0        0        0       20        2        0    18.630       97     40.2    7.487   -9.900     1.96    0.000    0.000       26        9     2000  Maize_Short_Soroca_6June_Optimum_26_MPI.PRM
  Tot(21)        6        6     2001    265.2    462.1   1291.3   371.07      0.0    251.0     14.2      4.4      0.0    148.7       72    243.1    243.3       95     0.000     0.000     0.000     0.000      107        0        0        0       12        9        3    18.439       88     40.5    7.475   -9.900     1.91    0.000    0.000       26        9     2001  Maize_Short_Soroca_6June_Optimum_26_MPI.PRM
  Tot(22)        6        6     2002    389.7    467.2   1321.1   373.16      0.0    352.6     37.1     42.5      0.0    111.1       45    233.9    233.6      100     0.000     0.000     0.000     0.000      107        0        0        0       11        4        0    19.338       93     40.0    7.735   -9.900     2.24    0.000    0.000       26        9     2002  Maize_Short_Soroca_6June_Optimum_26_MPI.PRM
  Tot(23)        6        6     2003    334.8    489.0   1220.9   375.80      0.0    285.0     49.8     63.3      0.0    133.7       57    245.9    246.1      100     0.000     0.000     0.000     0.000      107        0        0        0       15        2        0    19.012       96     40.0    7.613   -9.900     2.01    0.000    0.000       26        9     2003  Maize_Short_Soroca_6June_Optimum_26_MPI.PRM
  Tot(24)        6        6     2004    263.1    450.3   1178.8   377.49      0.0    242.3     20.8      9.2      0.0     93.0       39    210.9    210.9      100     0.000     0.000     0.000     0.000      107        0        0        0       15        4        0    18.718       94     40.0    7.489   -9.900     2.46    0.000    0.000       26        9     2004  Maize_Short_Soroca_6June_Optimum_26_MPI.PRM
  Tot(25)        6        6     2005    181.1    447.2   1239.3   379.80      0.0    175.6      5.5      8.2      0.0    113.8       56    245.0    243.9       99     0.000     0.000     0.000     0.000      107        0        0        0        9        6        1    20.634       95     40.2    8.295   -9.900     2.31    0.000    0.000       26        9     2005  Maize_Short_Soroca_6June_Optimum_26_MPI.PRM
  Tot(26)        6        6     2006    220.5    483.0   1237.4   381.90      0.0    215.5      5.0      0.0      0.0    107.4       46    249.8    248.3      100     0.000     0.000     0.000     0.000      107        0        0        0       11        7        0    19.853       94     40.2    7.983   -9.900     2.23    0.000    0.000       26        9     2006  Maize_Short_Soroca_6June_Optimum_26_MPI.PRM
  Tot(27)        6        6     2007    185.3    532.1   1314.3   383.77      0.0    181.4      3.9      0.0      0.0    105.3       34    226.3    227.8      100     0.000     0.000     0.000     0.000      107        0        0        0       13       17        0    17.234       86     40.3    6.950   -9.900     2.10    0.000    0.000       26        9     2007  Maize_Short_Soroca_6June_Optimum_26_MPI.PRM
  Tot(28)        6        6     2008    400.0    488.6   1252.2   385.59      0.0    330.7     69.3     52.0      0.0    121.0       50    256.1    256.9      100     0.000     0.000     0.000     0.000      107        0        0        0       15        3        0    18.626       95     40.1    7.461   -9.900     1.98    0.000    0.000       26        9     2008  Maize_Short_Soroca_6June_Optimum_26_MPI.PRM
  Tot(29)        6        6     2009    155.7    534.4   1353.0   387.37      0.0    154.7      1.0      0.0      0.0    147.7       53    224.3    224.6       86     0.000     0.000     0.000     0.000      107        0        0        0        8       15       15    15.856       71     40.0    6.345   -9.900     1.71    0.000    0.000       26        9     2009  Maize_Short_Soroca_6June_Optimum_26_MPI.PRM
  Tot(30)        6        6     2010    312.2    466.6   1338.8   389.85      0.0    287.9     24.3     41.7      0.0    138.3       65    249.8    247.9       99     0.000     0.000     0.000     0.000      107        0        0        0       13        6        1    19.331       95     40.4    7.809   -9.900     2.01    0.000    0.000       26        9     2010  Maize_Short_Soroca_6June_Optimum_26_MPI.PRM
  Tot(31)        6        6     2011    175.5    501.1   1309.7   391.63      0.0    172.0      3.5      3.5      0.0    141.3       61    244.8    246.6       89     0.000     0.000     0.000     0.000      107        0        0        0        8        5       12    18.145       80     39.9    7.232   -9.900     1.87    0.000    0.000       26        9     2011  Maize_Short_Soroca_6June_Optimum_26_MPI.PRM
  Tot(32)        6        6     2012    107.4    583.0   1401.8   393.82      0.0    105.8      1.6      3.9      0.0    104.2       29    211.3    211.3       87     0.000     0.000     0.000     0.000      107        0        0        0        7       30       13    13.847       63     40.4    5.597   -9.900     1.77    0.000    0.000       26        9     2012  Maize_Short_Soroca_6June_Optimum_26_MPI.PRM
  Tot(33)        6        6     2013    249.3    473.0   1269.4   396.48      0.0    231.5     17.8      0.0      0.0    130.3       53    203.7    203.6       91     0.000     0.000     0.000     0.000      107        0        0        0       13       20        4    16.268       81     40.8    6.639   -9.900     1.99    0.000    0.000       26        9     2013  Maize_Short_Soroca_6June_Optimum_26_MPI.PRM
  Tot(34)        6        6     2014    237.1    504.5   1302.8   398.55      0.0    217.1     20.0     22.3      0.0    105.9       46    262.6    262.7       95     0.000     0.000     0.000     0.000      107        0        0        0       11        6        5    19.268       89     40.2    7.737   -9.900     2.10    0.000    0.000       26        9     2014  Maize_Short_Soroca_6June_Optimum_26_MPI.PRM
  Tot(35)        6        6     2015     75.3    590.7   1405.3   401.00      0.0     75.3      0.0      0.0      0.0     96.2       25    171.2    171.3       80     0.000     0.000     0.000     0.000      102        0        0        0        7       30       17    10.401       46     39.5    4.106   -9.900     1.57    0.000    0.000       26        9     2015  Maize_Short_Soroca_6June_Optimum_26_MPI.PRM
  Tot(36)        6        6     2016    196.8    529.3   1373.3   403.00      0.0    193.9      2.9      1.7      0.0    155.3       59    244.0    243.9       89     0.000     0.000     0.000     0.000      107        0        0        0        9       17       12    17.045       77     40.2    6.860   -9.900     1.72    0.000    0.000       26        9     2016  Maize_Short_Soroca_6June_Optimum_26_MPI.PRM
  Tot(37)        6        6     2017    229.7    532.7   1347.1   405.00      0.0    222.5      7.2      1.9      0.0    148.0       56    239.4    238.7       88     0.000     0.000     0.000     0.000      107        0        0        0        8       13        9    17.133       77     40.2    6.890   -9.900     1.78    0.000    0.000       26        9     2017  Maize_Short_Soroca_6June_Optimum_26_MPI.PRM
  Tot(38)        6        6     2018    252.3    476.6   1408.2   408.00      0.0    239.0     13.3     15.2      0.0    141.3       69    276.7    277.6       98     0.000     0.000     0.000     0.000      107        0        0        0        7        1        2    21.688       95     40.0    8.684   -9.900     2.08    0.000    0.000       26        9     2018  Maize_Short_Soroca_6June_Optimum_26_MPI.PRM
  Tot(39)        6        6     2019    166.3    540.1   1376.3   410.00      0.0    163.1      3.2      4.4      0.0    138.9       51    217.0    216.8       81     0.000     0.000     0.000     0.000      107        0        0        0        9       13       17    15.334       70     39.7    6.095   -9.900     1.71    0.000    0.000       26        9     2019  Maize_Short_Soroca_6June_Optimum_26_MPI.PRM
  Tot(40)        6        6     2020    226.9    407.9   1049.9   412.00      0.0    221.8      5.1      1.8      0.0    131.6       72    196.8    196.9      100     0.000     0.000     0.000     0.000      107        0        0        0       23        8        0    17.125       96     40.3    6.894   -9.900     2.10    0.000    0.000       26        9     2020  Maize_Short_Soroca_6June_Optimum_26_MPI.PRM
  Tot(41)        6        6     2021    205.7    442.9   1119.4   414.00      0.0    204.2      1.5      0.7      0.0     97.8       46    224.5    224.6      100     0.000     0.000     0.000     0.000      107        0        0        0       16        4        0    19.668       95     40.1    7.887   -9.900     2.45    0.000    0.000       26        9     2021  Maize_Short_Soroca_6June_Optimum_26_MPI.PRM
  Tot(42)        6        6     2022    314.2    408.0   1065.2   417.00      0.0    259.4     54.8     12.6      0.0    118.0       67    206.1    205.7      100     0.000     0.000     0.000     0.000      107        0        0        0       22        4        0    17.538       96     40.0    7.016   -9.900     2.17    0.000    0.000       26        9     2022  Maize_Short_Soroca_6June_Optimum_26_MPI.PRM
  Tot(43)        6        6     2023    264.8    487.4   1154.8   419.00      0.0    251.7     13.1      0.0      0.0    105.6       40    200.8    199.8      100     0.000     0.000     0.000     0.000      107        0        0        0       20        7        0    16.677       91     40.0    6.677   -9.900     2.18    0.000    0.000       26        9     2023  Maize_Short_Soroca_6June_Optimum_26_MPI.PRM
  Tot(44)        6        6     2024    191.7    442.5   1075.7   421.00      0.0    181.0     10.7      0.0      0.0    103.1       45    204.2    204.9      100     0.000     0.000     0.000     0.000      107        0        0        0       21       12        0    18.214       93     40.5    7.368   -9.900     2.40    0.000    0.000       26        9     2024  Maize_Short_Soroca_6June_Optimum_26_MPI.PRM
  Tot(45)        6        6     2025    200.6    441.0   1131.2   423.00      0.0    196.6      4.0      0.0      0.0    105.0       46    207.9    208.4      100     0.000     0.000     0.000     0.000      107        0        0        0       17        4        0    18.807       95     40.2    7.562   -9.900     2.42    0.000    0.000       26        9     2025  Maize_Short_Soroca_6June_Optimum_26_MPI.PRM
  Tot(46)        6        6     2026    160.3    485.3   1094.7   424.00      0.0    156.1      4.2      0.0      0.0    101.8       39    204.9    205.2       98     0.000     0.000     0.000     0.000      107        0        0        0       19       11        1    16.576       88     40.2    6.667   -9.900     2.17    0.000    0.000       26        9     2026  Maize_Short_Soroca_6June_Optimum_26_MPI.PRM
  Tot(47)        6        6     2027    353.9    372.1   1007.2   426.00      0.0    306.0     47.9     33.5      0.0    115.1       69    183.6    182.6      100     0.000     0.000     0.000     0.000      107        0        0        0       23        1        0    18.573       97     40.0    7.429   -9.900     2.49    0.000    0.000       26        9     2027  Maize_Short_Soroca_6June_Optimum_26_MPI.PRM
  Tot(48)        6        6     2028    197.5    416.8   1069.0   428.00      0.0    194.1      3.4      8.0      0.0    116.6       60    211.3    211.7      100     0.000     0.000     0.000     0.000      107        0        0        0       17        3        0    19.918       96     40.1    7.989   -9.900     2.44    0.000    0.000       26        9     2028  Maize_Short_Soroca_6June_Optimum_26_MPI.PRM
  Tot(49)        6        6     2029    211.1    414.2    985.8   429.00      0.0    209.0      2.1      0.7      0.0    107.5       58    193.2    193.5      100     0.000     0.000     0.000     0.000      107        0        0        0       27        2        0    17.015       97     40.1    6.827   -9.900     2.27    0.000    0.000       26        9     2029  Maize_Short_Soroca_6June_Optimum_26_MPI.PRM
  Tot(50)        6        6     2030    261.5    468.6   1075.2   431.00      0.0    246.6     14.9     19.7      0.0    114.3       57    235.3    235.3      100     0.000     0.000     0.000     0.000      107        0        0        0       23        2        0    17.837       96     40.1    7.151   -9.900     2.05    0.000    0.000       26        9     2030  Maize_Short_Soroca_6June_Optimum_26_MPI.PRM
  Tot(51)        6        6     2031    277.0    417.7   1049.6   432.00      0.0    268.4      8.6      3.8      0.0    100.2       46    169.7    169.7      100     0.000     0.000     0.000     0.000      107        0        0        0       24        3        0    16.045       94     40.0    6.420   -9.900     2.38    0.000    0.000       26        9     2031  Maize_Short_Soroca_6June_Optimum_26_MPI.PRM
  Tot(52)        6        6     2032    167.3    436.0   1022.8   433.00      0.0    165.5      1.8      3.9      0.0    134.0       68    202.9    203.1       99     0.000     0.000     0.000     0.000      107        0        0        0       25        8        0    16.312       95     40.3    6.579   -9.900     1.95    0.000    0.000       26        9     2032  Maize_Short_Soroca_6June_Optimum_26_MPI.PRM
  Tot(53)        6        6     2033    168.1    429.6    995.9   435.00      0.0    163.7      4.4      9.4      0.0    110.2       59    208.7    208.6      100     0.000     0.000     0.000     0.000      107        0        0        0       23        3        0    17.583       96     40.1    7.059   -9.900     2.21    0.000    0.000       26        9     2033  Maize_Short_Soroca_6June_Optimum_26_MPI.PRM
  Tot(54)        6        6     2034    231.2    448.5   1137.3   436.00      0.0    223.0      8.2     11.5      0.0    135.4       61    209.6    207.8      100     0.000     0.000     0.000     0.000      107        0        0        0       18       10        0    18.444       95     40.4    7.459   -9.900     2.16    0.000    0.000       26        9     2034  Maize_Short_Soroca_6June_Optimum_26_MPI.PRM
  Tot(55)        6        6     2035    163.7    464.5   1094.9   437.00      0.0    153.5     10.2      7.3      0.0     97.2       45    218.7    219.7       93     0.000     0.000     0.000     0.000      107        0        0        0       18       12        4    17.282       84     40.6    7.018   -9.900     2.22    0.000    0.000       26        9     2035  Maize_Short_Soroca_6June_Optimum_26_MPI.PRM
  Tot(56)        6        6     2036    179.6    419.6   1048.0   438.00      0.0    177.7      1.9      4.5      0.0     99.0       49    200.8    201.5      100     0.000     0.000     0.000     0.000      107        0        0        0       21        4        0    18.436       96     40.1    7.388   -9.900     2.46    0.000    0.000       26        9     2036  Maize_Short_Soroca_6June_Optimum_26_MPI.PRM
  Tot(57)        6        6     2037    255.3    391.3   1027.9   438.00      0.0    249.4      5.9      0.0      0.0     99.1       51    182.5    181.7      100     0.000     0.000     0.000     0.000      107        0        0        0       21        2        0    19.098       96     40.0    7.641   -9.900     2.71    0.000    0.000       26        9     2037  Maize_Short_Soroca_6June_Optimum_26_MPI.PRM
  Tot(58)        6        6     2038    169.7    405.1   1041.8   439.00      0.0    168.8      0.9      0.0      0.0     84.4       44    185.3    185.7      100     0.000     0.000     0.000     0.000      107        0        0        0       22        7        0    17.586       95     40.2    7.065   -9.900     2.62    0.000    0.000       26        9     2038  Maize_Short_Soroca_6June_Optimum_26_MPI.PRM
  Tot(59)        6        6     2039    174.7    496.4   1131.2   440.00      0.0    170.0      4.7      0.0      0.0    102.3       39    223.6    223.7      100     0.000     0.000     0.000     0.000      107        0        0        0       15       12        0    18.655       90     40.0    7.470   -9.900     2.29    0.000    0.000       26        9     2039  Maize_Short_Soroca_6June_Optimum_26_MPI.PRM
  Tot(60)        6        6     2040    163.8    460.5   1100.8   440.00      0.0    163.1      0.7      0.0      0.0    132.0       61    222.9    223.0       97     0.000     0.000     0.000     0.000      107        0        0        0       18       14        3    18.257       90     40.5    7.403   -9.900     2.09    0.000    0.000       26        9     2040  Maize_Short_Soroca_6June_Optimum_26_MPI.PRM
  Tot(61)        6        6     2041    210.7    520.5   1130.1   441.00      0.0    183.1     27.6      0.0      0.0    117.1       42    193.1    192.6       82     0.000     0.000     0.000     0.000      107        0        0        0       19       25       10    13.163       67     40.6    5.351   -9.900     1.73    0.000    0.000       26        9     2041  Maize_Short_Soroca_6June_Optimum_26_MPI.PRM
  Tot(62)        6        6     2042    236.8    413.0   1038.7   441.00      0.0    224.6     12.2      1.0      0.0    111.9       56    186.9    187.3      100     0.000     0.000     0.000     0.000      107        0        0        0       19        1        0    18.933       97     40.0    7.577   -9.900     2.54    0.000    0.000       26        9     2042  Maize_Short_Soroca_6June_Optimum_26_MPI.PRM
  Tot(63)        6        6     2043    205.0    396.3    941.5   441.00      0.0    200.7      4.3      4.5      0.0    118.7       71    199.8    199.5      100     0.000     0.000     0.000     0.000      107        0        0        0       30        5        0    17.204       97     40.2    6.917   -9.900     2.17    0.000    0.000       26        9     2043  Maize_Short_Soroca_6June_Optimum_26_MPI.PRM
  Tot(64)        6        6     2044    283.9    366.3    987.2   442.00      0.0    265.2     18.7     31.8      0.0    103.3       60    163.4    163.6      100     0.000     0.000     0.000     0.000      107        0        0        0       26        1        0    17.497       97     40.0    7.001   -9.900     2.62    0.000    0.000       26        9     2044  Maize_Short_Soroca_6June_Optimum_26_MPI.PRM
  Tot(65)        6        6     2045    237.6    417.0   1157.7   442.00      0.0    233.3      4.3      7.8      0.0    109.3       54    208.5    207.0      100     0.000     0.000     0.000     0.000      107        0        0        0       14        2        0    20.331       96     40.0    8.137   -9.900     2.56    0.000    0.000       26        9     2045  Maize_Short_Soroca_6June_Optimum_26_MPI.PRM
  Tot(66)        6        6     2046    303.7    375.0   1025.4   442.00      0.0    279.2     24.5     24.7      0.0    115.4       61    156.3    157.9      100     0.000     0.000     0.000     0.000      107        0        0        0       24        1        0    16.796       97     40.0    6.719   -9.900     2.47    0.000    0.000       26        9     2046  Maize_Short_Soroca_6June_Optimum_26_MPI.PRM
  Tot(67)        6        6     2047    229.0    432.8   1190.4   442.00      0.0    214.6     14.4     30.1      0.0    117.6       62    241.0    240.4      100     0.000     0.000     0.000     0.000      107        0        0        0       13        5        0    21.554       96     40.2    8.672   -9.900     2.42    0.000    0.000       26        9     2047  Maize_Short_Soroca_6June_Optimum_26_MPI.PRM
  Tot(68)        6        6     2048    305.0    424.7   1160.4   442.00      0.0    245.7     59.3     21.7      0.0    111.3       54    212.9    212.3      100     0.000     0.000     0.000     0.000      107        0        0        0       13        2        0    20.979       96     40.0    8.392   -9.900     2.59    0.000    0.000       26        9     2048  Maize_Short_Soroca_6June_Optimum_26_MPI.PRM
  Tot(69)        6        6     2049    148.9    460.2   1029.6   443.00      0.0    148.5      0.4      0.0      0.0     96.5       44    207.3    208.4      100     0.000     0.000     0.000     0.000      107        0        0        0       25        8        0    17.230       94     40.3    6.940   -9.900     2.28    0.000    0.000       26        9     2049  Maize_Short_Soroca_6June_Optimum_26_MPI.PRM
  Tot(70)        6        6     2050    231.6    423.3   1029.6   443.00      0.0    202.1     29.5     41.1      0.0    111.4       54    193.0    193.4      100     0.000     0.000     0.000     0.000      107        0        0        0       23        5        0    17.680       95     40.1    7.098   -9.900     2.33    0.000    0.000       26        9     2050  Maize_Short_Soroca_6June_Optimum_26_MPI.PRM
  Tot(71)        6        6     2051    227.9    436.1   1071.8   443.00      0.0    219.9      8.0      1.1      0.0    104.8       48    207.7    207.7      100     0.000     0.000     0.000     0.000      107        0        0        0       16        6        0    19.108       94     40.1    7.663   -9.900     2.45    0.000    0.000       26        9     2051  Maize_Short_Soroca_6June_Optimum_26_MPI.PRM
  Tot(72)        6        6     2052    225.2    417.6   1066.2   443.00      0.0    212.8     12.4      0.0      0.0    114.1       53    174.5    173.2      100     0.000     0.000     0.000     0.000      107        0        0        0       22        3        0    17.532       95     40.0    7.013   -9.900     2.43    0.000    0.000       26        9     2052  Maize_Short_Soroca_6June_Optimum_26_MPI.PRM
  Tot(73)        6        6     2053    143.9    451.1   1099.3   443.00      0.0    142.4      1.5      0.0      0.0    105.6       52    223.1    222.9       99     0.000     0.000     0.000     0.000      107        0        0        0       19        4        1    19.014       95     40.2    7.647   -9.900     2.33    0.000    0.000       26        9     2053  Maize_Short_Soroca_6June_Optimum_26_MPI.PRM
  Tot(74)        6        6     2054    268.3    444.8   1077.7   443.00      0.0    248.0     20.3      0.8      0.0    114.5       56    229.1    230.7       98     0.000     0.000     0.000     0.000      107        0        0        0       21        5        1    18.763       94     40.2    7.537   -9.900     2.19    0.000    0.000       26        9     2054  Maize_Short_Soroca_6June_Optimum_26_MPI.PRM
  Tot(75)        6        6     2055    110.9    479.9   1163.8   443.00      0.0    110.2      0.7      2.5      0.0     94.0       39    218.4    218.1       96     0.000     0.000     0.000     0.000      107        0        0        0       14       12        4    18.418       88     40.5    7.456   -9.900     2.39    0.000    0.000       26        9     2055  Maize_Short_Soroca_6June_Optimum_26_MPI.PRM
  Tot(76)        6        6     2056    123.9    499.5   1120.4   442.00      0.0    122.6      1.3      0.7      0.0     93.8       40    230.6    230.9       91     0.000     0.000     0.000     0.000      107        0        0        0       17        9        8    17.475       83     40.0    6.992   -9.900     2.16    0.000    0.000       26        9     2056  Maize_Short_Soroca_6June_Optimum_26_MPI.PRM
  Tot(77)        6        6     2057    212.3    460.9   1170.1   442.00      0.0    196.6     15.7      0.0      0.0     99.7       48    247.9    245.9      100     0.000     0.000     0.000     0.000      107        0        0        0       15        6        0    20.477       94     40.1    8.217   -9.900     2.36    0.000    0.000       26        9     2057  Maize_Short_Soroca_6June_Optimum_26_MPI.PRM
  Tot(78)        6        6     2058    291.0    451.7   1082.3   442.00      0.0    255.3     35.7      0.0      0.0    108.8       44    188.7    190.5      100     0.000     0.000     0.000     0.000      107        0        0        0       22        7        0    16.729       94     40.3    6.735   -9.900     2.26    0.000    0.000       26        9     2058  Maize_Short_Soroca_6June_Optimum_26_MPI.PRM
  Tot(79)        6        6     2059    272.1    425.0   1078.6   442.00      0.0    244.3     27.8      2.2      0.0     84.0       36    173.7    172.5      100     0.000     0.000     0.000     0.000      107        0        0        0       22        6        0    16.341       93     40.1    6.547   -9.900     2.54    0.000    0.000       26        9     2059  Maize_Short_Soroca_6June_Optimum_26_MPI.PRM
  Tot(80)        6        6     2060    145.8    478.0   1173.7   442.00      0.0    139.2      6.6      5.8      0.0     90.0       40    232.9    233.1       92     0.000     0.000     0.000     0.000      107        0        0        0       16       19        5    17.414       81     40.3    7.021   -9.900     2.17    0.000    0.000       26        9     2060  Maize_Short_Soroca_6June_Optimum_26_MPI.PRM
  Tot(81)        6        6     2061    147.7    501.1   1215.7   441.00      0.0    147.4      0.3      0.0      0.0     87.4       33    233.1    234.3       97     0.000     0.000     0.000     0.000      107        0        0        0       13       11        2    18.692       88     40.2    7.515   -9.900     2.34    0.000    0.000       26        9     2061  Maize_Short_Soroca_6June_Optimum_26_MPI.PRM
  Tot(82)        6        6     2062    173.0    386.2    933.6   441.00      0.0    171.9      1.1      2.8      0.0     98.6       56    169.7    169.3      100     0.000     0.000     0.000     0.000      107        0        0        0       28        3        0    16.660       97     40.1    6.678   -9.900     2.49    0.000    0.000       26        9     2062  Maize_Short_Soroca_6June_Optimum_26_MPI.PRM
  Tot(83)        6        6     2063    232.0    465.2   1143.1   441.00      0.0    210.8     21.2      8.6      0.0    101.0       40    208.7    207.2      100     0.000     0.000     0.000     0.000      107        0        0        0       17       15        0    18.060       90     40.6    7.326   -9.900     2.37    0.000    0.000       26        9     2063  Maize_Short_Soroca_6June_Optimum_26_MPI.PRM
  Tot(84)        6        6     2064    307.0    439.7   1110.0   440.00      0.0    259.8     47.2     15.2      0.0     98.7       44    203.5    205.4      100     0.000     0.000     0.000     0.000      107        0        0        0       19        4        0    19.134       94     40.1    7.668   -9.900     2.54    0.000    0.000       26        9     2064  Maize_Short_Soroca_6June_Optimum_26_MPI.PRM
  Tot(85)        6        6     2065    200.8    367.8   1029.7   440.00      0.0    196.3      4.5      8.6      0.0    102.4       63    193.0    193.0      100     0.000     0.000     0.000     0.000      107        0        0        0       21        1        0    19.908       97     40.1    7.978   -9.900     2.70    0.000    0.000       26        9     2065  Maize_Short_Soroca_6June_Optimum_26_MPI.PRM
  Tot(86)        6        6     2066    255.3    409.3    989.4   440.00      0.0    243.3     12.0      0.0      0.0    114.9       58    180.9    180.9      100     0.000     0.000     0.000     0.000      107        0        0        0       26        1        0    16.934       97     40.0    6.780   -9.900     2.29    0.000    0.000       26        9     2066  Maize_Short_Soroca_6June_Optimum_26_MPI.PRM
  Tot(87)        6        6     2067    197.9    364.6    918.2   439.00      0.0    194.3      3.6      1.8      0.0    103.8       61    163.0    162.9      100     0.000     0.000     0.000     0.000      107        0        0        0       27        2        0    17.368       97     40.0    6.952   -9.900     2.61    0.000    0.000       26        9     2067  Maize_Short_Soroca_6June_Optimum_26_MPI.PRM
  Tot(88)        6        6     2068    197.6    389.1    969.6   439.00      0.0    183.8     13.8     16.6      0.0    108.8       61    170.6    168.5      100     0.000     0.000     0.000     0.000      107        0        0        0       29        3        0    15.853       96     40.1    6.351   -9.900     2.27    0.000    0.000       26        9     2068  Maize_Short_Soroca_6June_Optimum_26_MPI.PRM
  Tot(89)        6        6     2069    351.1    432.5   1183.4   438.00      0.0    337.1     14.0      6.1      0.0    134.0       60    202.9    205.0      100     0.000     0.000     0.000     0.000      107        0        0        0       15        2        0    19.584       96     40.0    7.834   -9.900     2.33    0.000    0.000       26        9     2069  Maize_Short_Soroca_6June_Optimum_26_MPI.PRM
  Tot(90)        6        6     2070    210.8    432.7   1070.9   437.00      0.0    201.9      8.9      1.9      0.0    103.5       44    171.3    169.8      100     0.000     0.000     0.000     0.000      107        0        0        0       23        5        0    16.207       94     40.0    6.490   -9.900     2.36    0.000    0.000       26        9     2070  Maize_Short_Soroca_6June_Optimum_26_MPI.PRM
  Tot(91)        6        6     2071    285.0    444.9   1154.2   437.00      0.0    264.7     20.3      4.3      0.0    136.5       67    233.0    232.5      100     0.000     0.000     0.000     0.000      107        0        0        0       11        2        0    20.849       97     40.0    8.341   -9.900     2.26    0.000    0.000       26        9     2071  Maize_Short_Soroca_6June_Optimum_26_MPI.PRM
  Tot(92)        6        6     2072    198.5    507.9   1193.8   436.00      0.0    175.5     23.0      3.4      0.0    106.6       41    210.3    211.9       87     0.000     0.000     0.000     0.000      107        0        0        0       16       27        7    14.589       72     40.8    5.952   -9.900     1.88    0.000    0.000       26        9     2072  Maize_Short_Soroca_6June_Optimum_26_MPI.PRM
  Tot(93)        6        6     2073    205.2    517.8   1206.7   436.00      0.0    177.8     27.4      0.0      0.0    100.2       34    197.9    198.2       88     0.000     0.000     0.000     0.000      107        0        0        0       16       27        7    14.015       71     40.7    5.699   -9.900     1.91    0.000    0.000       26        9     2073  Maize_Short_Soroca_6June_Optimum_26_MPI.PRM
  Tot(94)        6        6     2074    228.6    459.2   1130.4   435.00      0.0    219.3      9.3     10.0      0.0    109.3       42    182.3    179.7      100     0.000     0.000     0.000     0.000      107        0        0        0       24        9        0    15.979       91     40.1    6.401   -9.900     2.19    0.000    0.000       26        9     2074  Maize_Short_Soroca_6June_Optimum_26_MPI.PRM
  Tot(95)        6        6     2075    334.5    436.8   1101.1   435.00      0.0    278.5     56.0     19.7      0.0    130.8       67    223.7    224.7      100     0.000     0.000     0.000     0.000      107        0        0        0       19        3        0    19.336       97     40.2    7.775   -9.900     2.19    0.000    0.000       26        9     2075  Maize_Short_Soroca_6June_Optimum_26_MPI.PRM
  Tot(96)        6        6     2076    166.1    443.2   1096.6   434.00      0.0    165.6      0.5      0.0      0.0    106.5       50    206.8    207.8      100     0.000     0.000     0.000     0.000      107        0        0        0       20        8        0    17.747       95     40.4    7.177   -9.900     2.29    0.000    0.000       26        9     2076  Maize_Short_Soroca_6June_Optimum_26_MPI.PRM
  Tot(97)        6        6     2077    196.3    483.3   1117.5   433.00      0.0    183.2     13.1     24.5      0.0    123.0       55    234.3    233.8       93     0.000     0.000     0.000     0.000      107        0        0        0       15       12        5    18.278       86     40.5    7.394   -9.900     2.07    0.000    0.000       26        9     2077  Maize_Short_Soroca_6June_Optimum_26_MPI.PRM
  Tot(98)        6        6     2078    213.5    430.3   1107.8   433.00      0.0    205.1      8.4      2.1      0.0     98.7       49    214.4    213.7      100     0.000     0.000     0.000     0.000      107        0        0        0       16        5        0    19.427       95     40.0    7.772   -9.900     2.48    0.000    0.000       26        9     2078  Maize_Short_Soroca_6June_Optimum_26_MPI.PRM
  Tot(99)        6        6     2079    327.5    384.9   1018.0   432.00      0.0    286.6     40.9     41.3      0.0    134.2       79    198.1    200.0      100     0.000     0.000     0.000     0.000      107        0        0        0       21        2        0    19.421       97     40.1    7.785   -9.900     2.34    0.000    0.000       26        9     2079  Maize_Short_Soroca_6June_Optimum_26_MPI.PRM
 Tot(100)        6        6     2080    159.7    474.8   1183.9   432.00      0.0    153.0      6.7      0.0      0.0     97.3       42    222.0    221.9       92     0.000     0.000     0.000     0.000      107        0        0        0       14       14        5    17.880       81     40.4    7.224   -9.900     2.26    0.000    0.000       26        9     2080  Maize_Short_Soroca_6June_Optimum_26_MPI.PRM
 Tot(101)        6        6     2081    156.4    507.5   1205.8   431.00      0.0    145.2     11.2     16.0      0.0    112.5       43    222.1    222.2       90     0.000     0.000     0.000     0.000      107        0        0        0       13       22        8    16.545       77     40.7    6.731   -9.900     2.01    0.000    0.000       26        9     2081  Maize_Short_Soroca_6June_Optimum_26_MPI.PRM
 Tot(102)        6        6     2082    203.6    432.2   1097.7   431.00      0.0    198.6      5.0      0.0      0.0    108.9       54    224.3    224.1      100     0.000     0.000     0.000     0.000      107        0        0        0       19        8        0    19.391       94     40.5    7.844   -9.900     2.35    0.000    0.000       26        9     2082  Maize_Short_Soroca_6June_Optimum_26_MPI.PRM
 Tot(103)        6        6     2083    186.1    494.2   1162.8   430.00      0.0    184.7      1.4      0.0      0.0    117.0       48    244.7    242.9      100     0.000     0.000     0.000     0.000      107        0        0        0       14       10        0    18.990       92     40.4    7.669   -9.900     2.12    0.000    0.000       26        9     2083  Maize_Short_Soroca_6June_Optimum_26_MPI.PRM
 Tot(104)        6        6     2084    316.3    383.1   1025.4   429.00      0.0    292.3     24.0     26.9      0.0    114.1       68    200.9    202.5      100     0.000     0.000     0.000     0.000      107        0        0        0       20        1        0    19.183       97     40.0    7.674   -9.900     2.44    0.000    0.000       26        9     2084  Maize_Short_Soroca_6June_Optimum_26_MPI.PRM
 Tot(105)        6        6     2085    181.4    455.7   1057.0   429.00      0.0    178.9      2.5      0.0      0.0     96.9       42    200.5    199.9      100     0.000     0.000     0.000     0.000      107        0        0        0       21        6        0    17.318       93     40.1    6.946   -9.900     2.34    0.000    0.000       26        9     2085  Maize_Short_Soroca_6June_Optimum_26_MPI.PRM
 Tot(106)        6        6     2086    196.6    444.6   1088.2   428.00      0.0    191.9      4.7      4.9      0.0    113.6       59    223.9    225.0       95     0.000     0.000     0.000     0.000      107        0        0        0       20       14        3    16.753       90     40.8    6.828   -9.900     2.02    0.000    0.000       26        9     2086  Maize_Short_Soroca_6June_Optimum_26_MPI.PRM
 Tot(107)        6        6     2087    259.8    425.8   1067.7   428.00      0.0    254.6      5.2      2.9      0.0    109.4       50    183.2    182.2      100     0.000     0.000     0.000     0.000      107        0        0        0       19        3        0    18.052       95     40.0    7.225   -9.900     2.47    0.000    0.000       26        9     2087  Maize_Short_Soroca_6June_Optimum_26_MPI.PRM
 Tot(108)        6        6     2088    105.2    493.3   1254.0   427.00      0.0    101.1      4.1      4.9      0.0     86.7       37    225.3    225.9       89     0.000     0.000     0.000     0.000      107        0        0        0        9        7       10    17.745       80     40.1    7.108   -9.900     2.28    0.000    0.000       26        9     2088  Maize_Short_Soroca_6June_Optimum_26_MPI.PRM
 Tot(109)        6        6     2089    208.3    418.0   1033.6   427.00      0.0    207.3      1.0      0.0      0.0    118.7       61    203.9    202.6      100     0.000     0.000     0.000     0.000      107        0        0        0       21        2        0    18.340       96     40.1    7.346   -9.900     2.28    0.000    0.000       26        9     2089  Maize_Short_Soroca_6June_Optimum_26_MPI.PRM
 Tot(110)        6        6     2090    232.5    411.9    957.3   426.00      0.0    214.4     18.1      0.0      0.0    109.0       53    170.8    172.1      100     0.000     0.000     0.000     0.000      107        0        0        0       27        5        0    15.989       95     40.1    6.414   -9.900     2.29    0.000    0.000       26        9     2090  Maize_Short_Soroca_6June_Optimum_26_MPI.PRM
 Tot(111)        6        6     2091    178.2    506.9   1315.4   425.00      0.0    177.0      1.2      0.0      0.0    150.0       60    229.7    229.7       89     0.000     0.000     0.000     0.000      107        0        0        0        9       14        8    17.839       80     40.4    7.213   -9.900     1.90    0.000    0.000       26        9     2091  Maize_Short_Soroca_6June_Optimum_26_MPI.PRM
 Tot(112)        6        6     2092    275.1    381.4    946.0   425.00      0.0    258.0     17.1      8.1      0.0    112.2       53    135.4    135.4      100     0.000     0.000     0.000     0.000      107        0        0        0       30        3        0    14.519       96     40.0    5.810   -9.900     2.35    0.000    0.000       26        9     2092  Maize_Short_Soroca_6June_Optimum_26_MPI.PRM
 Tot(113)        6        6     2093    301.7    403.4    991.1   424.00      0.0    281.9     19.8      8.7      0.0    137.1       69    178.1    178.5      100     0.000     0.000     0.000     0.000      107        0        0        0       26        2        0    16.542       96     40.1    6.626   -9.900     2.10    0.000    0.000       26        9     2093  Maize_Short_Soroca_6June_Optimum_26_MPI.PRM
 Tot(114)        6        6     2094    203.7    516.5   1188.3   424.00      0.0    191.7     12.0     13.4      0.0    130.5       53    217.6    217.6       83     0.000     0.000     0.000     0.000      107        0        0        0       18       23       10    14.179       70     40.6    5.763   -9.900     1.66    0.000    0.000       26        9     2094  Maize_Short_Soroca_6June_Optimum_26_MPI.PRM
 Tot(115)        6        6     2095    159.6    504.4   1156.3   423.00      0.0    159.5      0.1      0.0      0.0     98.5       32    187.2    187.2      100     0.000     0.000     0.000     0.000      107        0        0        0       21       16        0    15.455       85     40.3    6.233   -9.900     2.18    0.000    0.000       26        9     2095  Maize_Short_Soroca_6June_Optimum_26_MPI.PRM
 Tot(116)        6        6     2096    204.6    506.6   1285.3   423.00      0.0    200.8      3.8      3.9      0.0    125.1       51    244.6    244.3       92     0.000     0.000     0.000     0.000      107        0        0        0       10       14        6    18.022       82     40.2    7.239   -9.900     1.96    0.000    0.000       26        9     2096  Maize_Short_Soroca_6June_Optimum_26_MPI.PRM
 Tot(117)        6        6     2097    217.0    426.3   1122.2   422.00      0.0    215.3      1.7      0.0      0.0    127.5       70    234.0    234.3      100     0.000     0.000     0.000     0.000      107        0        0        0       16        3        0    20.112       97     40.2    8.079   -9.900     2.23    0.000    0.000       26        9     2097  Maize_Short_Soroca_6June_Optimum_26_MPI.PRM
 Tot(118)        6        6     2098    181.2    446.6   1144.6   422.00      0.0    177.5      3.7      0.8      0.0    142.6       73    230.3    230.0       98     0.000     0.000     0.000     0.000      107        0        0        0       15        2        2    19.801       95     40.2    7.950   -9.900     2.13    0.000    0.000       26        9     2098  Maize_Short_Soroca_6June_Optimum_26_MPI.PRM
 Tot(119)        6        6     2099    162.9    358.7    957.1   421.00      0.0    161.3      1.6     11.1      0.0    102.7       69    182.0    179.8      100     0.000     0.000     0.000     0.000      107        0        0        0       25        2        0    18.451       97     40.1    7.395   -9.900     2.60    0.000    0.000       26        9     2099  Maize_Short_Soroca_6June_Optimum_26_MPI.PRM
