AquaCrop 7.0 (August 2022) - Output created on (date) : 23-11-2022   at (time) : 13:04:19

    RunNr     Day1   Month1    Year1     Rain      ETo       GD     CO2      Irri   Infilt   Runoff    Drain   Upflow        E     E/Ex       Tr      TrW   Tr/Trx    SaltIn   SaltOut    SaltUp  SaltProf     Cycle   SaltStr  FertStr  WeedStr  TempStr   ExpStr   StoStr  BioMass  Brelative   HI    Y(dry)  Y(fresh)    WPet      Bin     Bout     DayN   MonthN    YearN
                                           mm       mm  degC.day    ppm        mm       mm       mm       mm       mm       mm        %       mm       mm        %    ton/ha    ton/ha    ton/ha    ton/ha      days       %        %        %        %        %        %    ton/ha        %       %    ton/ha   ton/ha    kg/m3   ton/ha   ton/ha
   Tot(1)       22        5     1981    131.8    514.9   1295.7   340.11      0.0    131.0      0.8      0.0      0.0    103.1       43    242.3    241.5       87     0.000     0.000     0.000     0.000      107        0        0        0        8        8       10    16.780       78     40.1    6.732   -9.900     1.95    0.000    0.000       11        9     1981  Maize_short_Cahul_22May_Optimum_85_NCC.PRM
   Tot(2)       22        5     1982    240.1    482.2   1316.7   341.22      0.0    239.1      1.0      0.0      0.0    135.6       61    275.4    273.7      100     0.000     0.000     0.000     0.000      107        0        0        0        5        3        0    21.610       96     40.1    8.659   -9.900     2.11    0.000    0.000       11        9     1982  Maize_short_Cahul_22May_Optimum_85_NCC.PRM
   Tot(3)       22        5     1983    279.5    484.1   1295.1   342.84      0.0    252.0     27.5     32.8      0.0    123.2       58    279.7    279.7      100     0.000     0.000     0.000     0.000      107        0        0        0        7        5        0    20.958       95     40.2    8.422   -9.900     2.09    0.000    0.000       11        9     1983  Maize_short_Cahul_22May_Optimum_85_NCC.PRM
   Tot(4)       22        5     1984    165.7    468.8   1167.8   344.40      0.0    165.3      0.4      0.0      0.0    136.8       66    242.9    244.6       92     0.000     0.000     0.000     0.000      107        0        0        0       11        5        7    18.697       87     40.1    7.492   -9.900     1.97    0.000    0.000       11        9     1984  Maize_short_Cahul_22May_Optimum_85_NCC.PRM
   Tot(5)       22        5     1985    327.9    481.2   1222.6   345.87      0.0    296.5     31.4     47.4      0.0    134.3       67    278.4    277.7       98     0.000     0.000     0.000     0.000      107        0        0        0       12        3        1    20.283       95     40.1    8.143   -9.900     1.97    0.000    0.000       11        9     1985  Maize_short_Cahul_22May_Optimum_85_NCC.PRM
   Tot(6)       22        5     1986    159.8    540.0   1341.9   347.19      0.0    158.4      1.4      1.2      0.0    122.8       49    246.5    247.1       84     0.000     0.000     0.000     0.000      107        0        0        0        6       11       12    16.625       75     40.0    6.653   -9.900     1.80    0.000    0.000       11        9     1986  Maize_short_Cahul_22May_Optimum_85_NCC.PRM
   Tot(7)       22        5     1987    237.0    495.2   1234.6   348.98      0.0    226.5     10.5      5.8      0.0    111.8       54    293.7    292.6      100     0.000     0.000     0.000     0.000      107        0        0        0       10        4        0    20.802       96     40.2    8.362   -9.900     2.06    0.000    0.000       11        9     1987  Maize_short_Cahul_22May_Optimum_85_NCC.PRM
   Tot(8)       22        5     1988    215.6    496.5   1322.9   351.45      0.0    198.9     16.7     20.3      0.0    136.2       59    210.5    212.3       80     0.000     0.000     0.000     0.000      107        0        0        0        8       15       16    13.431       61     40.0    5.376   -9.900     1.55    0.000    0.000       11        9     1988  Maize_short_Cahul_22May_Optimum_85_NCC.PRM
   Tot(9)       22        5     1989    278.3    464.8   1227.8   352.89      0.0    269.4      8.9      0.8      0.0    130.8       68    277.9    276.5       98     0.000     0.000     0.000     0.000      107        0        0        0       11        5        1    20.634       94     40.1    8.276   -9.900     2.02    0.000    0.000       11        9     1989  Maize_short_Cahul_22May_Optimum_85_NCC.PRM
  Tot(10)       22        5     1990    134.6    519.4   1222.9   354.16      0.0    133.4      1.2      4.2      0.0    134.3       52    210.8    212.4       82     0.000     0.000     0.000     0.000      105        0        0        0       11       20       18    13.755       62     40.0    5.508   -9.900     1.60    0.000    0.000       11        9     1990  Maize_short_Cahul_22May_Optimum_85_NCC.PRM
  Tot(11)       22        5     1991    339.7    442.2   1261.6   355.48      0.0    294.4     45.3     75.9      0.0    115.8       67    276.1    274.2      100     0.000     0.000     0.000     0.000      107        0        0        0       10        2        0    21.539       97     40.1    8.636   -9.900     2.20    0.000    0.000       11        9     1991  Maize_short_Cahul_22May_Optimum_85_NCC.PRM
  Tot(12)       22        5     1992    172.1    523.4   1310.7   356.27      0.0    171.3      0.8      0.0      0.0    144.3       66    238.3    239.0       79     0.000     0.000     0.000     0.000      107        0        0        0        8       14       15    15.310       68     39.8    6.099   -9.900     1.59    0.000    0.000       11        9     1992  Maize_short_Cahul_22May_Optimum_85_NCC.PRM
  Tot(13)       22        5     1993    184.6    515.2   1213.1   356.95      0.0    177.7      6.9     14.6      0.0    114.5       50    251.4    250.8       90     0.000     0.000     0.000     0.000      107        0        0        0       12        7        7    17.190       83     40.1    6.897   -9.900     1.88    0.000    0.000       11        9     1993  Maize_short_Cahul_22May_Optimum_85_NCC.PRM
  Tot(14)       22        5     1994    229.2    520.8   1387.8   358.63      0.0    210.6     18.6     40.3      0.0    104.3       44    270.1    270.5       90     0.000     0.000     0.000     0.000      107        0        0        0        7        9        8    18.841       81     40.2    7.580   -9.900     2.02    0.000    0.000       11        9     1994  Maize_short_Cahul_22May_Optimum_85_NCC.PRM
  Tot(15)       22        5     1995    194.2    524.5   1401.1   360.62      0.0    189.8      4.4      0.3      0.0    116.9       46    243.9    243.6       88     0.000     0.000     0.000     0.000      107        0        0        0        3       13        9    16.803       74     40.3    6.767   -9.900     1.88    0.000    0.000       11        9     1995  Maize_short_Cahul_22May_Optimum_85_NCC.PRM
  Tot(16)       22        5     1996    152.9    537.6   1282.2   362.37      0.0    143.3      9.6      0.4      0.0     97.4       31    204.1    205.2       87     0.000     0.000     0.000     0.000      107        0        0        0        9       27        7    14.129       65     40.7    5.751   -9.900     1.91    0.000    0.000       11        9     1996  Maize_short_Cahul_22May_Optimum_85_NCC.PRM
  Tot(17)       22        5     1997    432.8    444.0   1221.9   363.47      0.0    383.5     49.3     17.3      0.0    148.6       78    259.9    259.2      100     0.000     0.000     0.000     0.000      107        0        0        0       10        1        0    21.660       97     40.0    8.668   -9.900     2.12    0.000    0.000       11        9     1997  Maize_short_Cahul_22May_Optimum_85_NCC.PRM
  Tot(18)       22        5     1998    180.5    509.6   1309.0   366.50      0.0    177.7      2.8      0.0      0.0    130.0       58    239.8    239.7       85     0.000     0.000     0.000     0.000      107        0        0        0        8        8       11    15.759       73     40.0    6.303   -9.900     1.70    0.000    0.000       11        9     1998  Maize_short_Cahul_22May_Optimum_85_NCC.PRM
  Tot(19)       22        5     1999    308.1    540.3   1455.6   368.14      0.0    295.8     12.3     14.0      0.0    143.6       56    302.8    301.2       99     0.000     0.000     0.000     0.000      107        0        0        0        3       11        1    21.267       92     40.6    8.645   -9.900     1.94    0.000    0.000       11        9     1999  Maize_short_Cahul_22May_Optimum_85_NCC.PRM
  Tot(20)       22        5     2000    130.9    589.8   1344.8   369.41      0.0    120.7     10.2      0.0      0.0     97.4       28    199.7    202.3       79     0.000     0.000     0.000     0.000      107        0        0        0        7       21       16    12.156       54     40.0    4.866   -9.900     1.64    0.000    0.000       11        9     2000  Maize_short_Cahul_22May_Optimum_85_NCC.PRM
  Tot(21)       22        5     2001    279.5    543.9   1369.9   371.07      0.0    230.6     48.9     24.2      0.0    149.2       55    207.6    207.9       77     0.000     0.000     0.000     0.000       99        0        0        0        6       18       20    12.713       55     35.9    4.565   -9.900     1.32    0.000    0.000       11        9     2001  Maize_short_Cahul_22May_Optimum_85_NCC.PRM
  Tot(22)       22        5     2002    292.1    558.8   1450.8   373.16      0.0    255.3     36.8      0.0      0.0    114.8       41    303.8    301.7      100     0.000     0.000     0.000     0.000      107        0        0        0        4       15        0    20.987       88     40.0    8.396   -9.900     2.01    0.000    0.000       11        9     2002  Maize_short_Cahul_22May_Optimum_85_NCC.PRM
  Tot(23)       22        5     2003    116.6    575.5   1394.8   375.80      0.0    116.5      0.1      0.0      0.0    105.7       34    221.9    223.7       82     0.000     0.000     0.000     0.000      107        0        0        0        6       17       16    14.768       65     39.7    5.864   -9.900     1.79    0.000    0.000       11        9     2003  Maize_short_Cahul_22May_Optimum_85_NCC.PRM
  Tot(24)       22        5     2004    264.5    517.1   1270.8   377.49      0.0    258.7      5.8      1.7      0.0    127.4       55    294.4    294.3      100     0.000     0.000     0.000     0.000      107        0        0        0        9        6        0    21.236       95     40.2    8.535   -9.900     2.02    0.000    0.000       11        9     2004  Maize_short_Cahul_22May_Optimum_85_NCC.PRM
  Tot(25)       22        5     2005    340.5    530.1   1378.5   379.80      0.0    324.9     15.6      7.2      0.0    155.4       67    317.3    314.7      100     0.000     0.000     0.000     0.000      107        0        0        0        5        2        0    22.748       97     40.0    9.107   -9.900     1.93    0.000    0.000       11        9     2005  Maize_short_Cahul_22May_Optimum_85_NCC.PRM
  Tot(26)       22        5     2006    165.3    572.9   1356.3   381.90      0.0    162.9      2.4      0.0      0.0    124.3       41    230.5    232.4       82     0.000     0.000     0.000     0.000      107        0        0        0        7       27       12    14.781       64     40.6    6.000   -9.900     1.69    0.000    0.000       11        9     2006  Maize_short_Cahul_22May_Optimum_85_NCC.PRM
  Tot(27)       22        5     2007    154.6    656.0   1505.6   383.77      0.0    153.3      1.3      0.0      0.0    127.0       32    225.1    224.7       80     0.000     0.000     0.000     0.000      107        0        0        0        3       31       12    12.953       56     40.5    5.250   -9.900     1.49    0.000    0.000       11        9     2007  Maize_short_Cahul_22May_Optimum_85_NCC.PRM
  Tot(28)       22        5     2008    135.9    609.6   1430.9   385.59      0.0    135.2      0.7      0.6      0.0    124.8       39    228.9    230.0       78     0.000     0.000     0.000     0.000      107        0        0        0        3       20       19    13.684       58     39.6    5.425   -9.900     1.53    0.000    0.000       11        9     2008  Maize_short_Cahul_22May_Optimum_85_NCC.PRM
  Tot(29)       22        5     2009    193.1    608.5   1428.8   387.37      0.0    186.0      7.1      0.0      0.0    132.2       42    241.1    240.7       81     0.000     0.000     0.000     0.000      107        0        0        0        4       18       16    14.136       60     40.1    5.670   -9.900     1.52    0.000    0.000       11        9     2009  Maize_short_Cahul_22May_Optimum_85_NCC.PRM
  Tot(30)       22        5     2010    262.4    544.9   1456.8   389.85      0.0    244.4     18.0     23.9      0.0    128.7       53    284.3    283.2       90     0.000     0.000     0.000     0.000      107        0        0        0        5        4        7    19.216       83     39.8    7.647   -9.900     1.85    0.000    0.000       11        9     2010  Maize_short_Cahul_22May_Optimum_85_NCC.PRM
  Tot(31)       22        5     2011    160.8    575.7   1434.7   391.63      0.0    157.7      3.1      5.8      0.0    126.0       47    245.7    247.2       78     0.000     0.000     0.000     0.000      107        0        0        0        3       14       18    15.775       67     39.7    6.267   -9.900     1.69    0.000    0.000       11        9     2011  Maize_short_Cahul_22May_Optimum_85_NCC.PRM
  Tot(32)       22        5     2012    196.3    639.5   1494.0   393.82      0.0    189.7      6.6      8.8      0.0    148.0       47    246.7    246.5       76     0.000     0.000     0.000     0.000      107        0        0        0        3       24       19    13.737       58     40.2    5.516   -9.900     1.40    0.000    0.000       11        9     2012  Maize_short_Cahul_22May_Optimum_85_NCC.PRM
  Tot(33)       22        5     2013    252.7    563.0   1428.9   396.48      0.0    239.0     13.7     14.7      0.0    144.5       57    275.7    274.9       86     0.000     0.000     0.000     0.000      107        0        0        0        3        8       10    18.220       77     40.0    7.293   -9.900     1.74    0.000    0.000       11        9     2013  Maize_short_Cahul_22May_Optimum_85_NCC.PRM
  Tot(34)       22        5     2014    196.3    573.6   1463.6   398.55      0.0    193.6      2.7      4.1      0.0    147.2       60    268.2    269.0       80     0.000     0.000     0.000     0.000      107        0        0        0        3       10       16    17.068       71     39.6    6.758   -9.900     1.63    0.000    0.000       11        9     2014  Maize_short_Cahul_22May_Optimum_85_NCC.PRM
  Tot(35)       22        5     2015    138.9    636.7   1471.6   402.00      0.0    136.7      2.2      0.0      0.0    116.3       36    235.7    235.8       74     0.000     0.000     0.000     0.000      107        0        0        0        4       20       19    13.888       58     40.0    5.549   -9.900     1.58    0.000    0.000       11        9     2015  Maize_short_Cahul_22May_Optimum_85_NCC.PRM
  Tot(36)       22        5     2016    164.9    587.5   1485.2   404.00      0.0    161.0      3.9      8.4      0.0    156.6       54    214.7    215.0       73     0.000     0.000     0.000     0.000      107        0        0        0        3       24       23    12.853       53     39.8    5.118   -9.900     1.38    0.000    0.000       11        9     2016  Maize_short_Cahul_22May_Optimum_85_NCC.PRM
  Tot(37)       22        5     2017    244.3    575.3   1442.4   407.00      0.0    217.3     27.0      1.4      0.0    121.3       49    311.7    310.9       91     0.000     0.000     0.000     0.000      107        0        0        0        3        6        9    19.945       84     39.9    7.961   -9.900     1.84    0.000    0.000       11        9     2017  Maize_short_Cahul_22May_Optimum_85_NCC.PRM
  Tot(38)       22        5     2018    162.1    570.8   1538.6   410.00      0.0    157.2      4.9      0.0      0.0     92.0       33    276.6    277.0       88     0.000     0.000     0.000     0.000      107        0        0        0        2        8       10    19.136       79     39.6    7.587   -9.900     2.06    0.000    0.000       11        9     2018  Maize_short_Cahul_22May_Optimum_85_NCC.PRM
  Tot(39)       22        5     2019    162.8    617.9   1528.8   413.00      0.0    161.5      1.3      0.0      0.0    164.0       51    219.7    220.3       76     0.000     0.000     0.000     0.000      105        0        0        0        1       20       21    13.858       57     39.4    5.460   -9.900     1.42    0.000    0.000       11        9     2019  Maize_short_Cahul_22May_Optimum_85_NCC.PRM
  Tot(40)       22        5     2020    122.5    582.4   1355.5   416.00      0.0    111.7     10.8     16.6      0.0    114.4       36    197.0    197.0       77     0.000     0.000     0.000     0.000       97        0        0        0        9       23       19    12.025       50     33.8    4.065   -9.900     1.31    0.000    0.000       11        9     2020  Maize_short_Cahul_22May_Optimum_85_NCC.PRM
  Tot(41)       22        5     2021    138.1    584.2   1361.6   419.00      0.0    136.8      1.3      0.0      0.0    120.7       43    234.8    234.8       80     0.000     0.000     0.000     0.000      101        0        0        0        6       12       19    13.954       58     37.7    5.263   -9.900     1.48    0.000    0.000       11        9     2021  Maize_short_Cahul_22May_Optimum_85_NCC.PRM
  Tot(42)       22        5     2022    151.9    482.0   1127.9   422.00      0.0    141.6     10.3     23.9      0.0    119.1       59    215.4    215.4       83     0.000     0.000     0.000     0.000      107        0        0        0       14        8       16    15.660       73     39.8    6.236   -9.900     1.86    0.000    0.000       11        9     2022  Maize_short_Cahul_22May_Optimum_85_NCC.PRM
  Tot(43)       22        5     2023    149.0    513.3   1171.2   425.00      0.0    133.1     15.9      0.0      0.0     89.4       36    225.7    225.4       88     0.000     0.000     0.000     0.000      107        0        0        0       15       25        6    15.614       73     40.8    6.369   -9.900     2.02    0.000    0.000       11        9     2023  Maize_short_Cahul_22May_Optimum_85_NCC.PRM
  Tot(44)       22        5     2024     63.4    638.3   1432.4   428.00      0.0     63.2      0.2      0.0      0.0     94.4       24    175.1    175.4       75     0.000     0.000     0.000     0.000       92        0        0        0        1       28       19     9.826       42     29.0    2.846   -9.900     1.06    0.000    0.000       11        9     2024  Maize_short_Cahul_22May_Optimum_85_NCC.PRM
  Tot(45)       22        5     2025    172.9    551.9   1343.9   431.00      0.0    167.2      5.7      7.6      0.0    151.7       58    218.4    218.4       79     0.000     0.000     0.000     0.000      100        0        0        0        5       17       18    13.556       57     37.1    5.029   -9.900     1.37    0.000    0.000       11        9     2025  Maize_short_Cahul_22May_Optimum_85_NCC.PRM
  Tot(46)       22        5     2026    481.4    441.0   1068.0   435.00      0.0    331.8    149.6    124.4      0.0    129.9       71    238.3    235.7      100     0.000     0.000     0.000     0.000      107        0        0        0       17        0        1    20.543       97     40.0    8.218   -9.900     2.23    0.000    0.000       11        9     2026  Maize_short_Cahul_22May_Optimum_85_NCC.PRM
  Tot(47)       22        5     2027     64.2    543.1   1242.2   438.00      0.0     62.1      2.1      2.0      0.0     88.2       32    186.4    188.9       77     0.000     0.000     0.000     0.000       99        0        0        0       13       19       19    12.648       53     35.9    4.544   -9.900     1.66    0.000    0.000       11        9     2027  Maize_short_Cahul_22May_Optimum_85_NCC.PRM
  Tot(48)       22        5     2028    156.4    598.9   1385.6   442.00      0.0    139.4     17.0     36.9      0.0    125.3       39    186.9    186.9       73     0.000     0.000     0.000     0.000       92        0        0        0        4       24       21    10.963       46     28.7    3.143   -9.900     1.02    0.000    0.000       11        9     2028  Maize_short_Cahul_22May_Optimum_85_NCC.PRM
  Tot(49)       22        5     2029     48.6    606.1   1366.7   445.00      0.0     47.9      0.7      0.5      0.0     82.3       22    170.1    170.1       76     0.000     0.000     0.000     0.000       92        0        0        0        8       30       19     9.870       41     29.3    2.893   -9.900     1.15    0.000    0.000       11        9     2029  Maize_short_Cahul_22May_Optimum_85_NCC.PRM
  Tot(50)       22        5     2030     34.1    678.4   1502.1   449.00      0.0     34.1      0.0      0.0      0.0     73.2       15    156.1    156.1       78     0.000     0.000     0.000     0.000       89        0        0        0        5       37       17     7.836       32     26.2    2.052   -9.900     0.90    0.000    0.000       11        9     2030  Maize_short_Cahul_22May_Optimum_85_NCC.PRM
  Tot(51)       22        5     2031     65.2    576.7   1282.6   452.00      0.0     64.7      0.5      0.6      0.0     95.2       30    177.3    177.3       75     0.000     0.000     0.000     0.000       93        0        0        0        6       24       19    10.973       47     30.2    3.311   -9.900     1.24    0.000    0.000       11        9     2031  Maize_short_Cahul_22May_Optimum_85_NCC.PRM
  Tot(52)       22        5     2032     78.3    607.3   1370.8   456.00      0.0     78.1      0.2      0.0      0.0    103.8       28    175.0    175.0       76     0.000     0.000     0.000     0.000       93        0        0        0        3       31       18    10.039       45     30.3    3.047   -9.900     1.11    0.000    0.000       11        9     2032  Maize_short_Cahul_22May_Optimum_85_NCC.PRM
  Tot(53)       22        5     2033     58.0    626.2   1389.2   460.00      0.0     58.0      0.0      0.0      0.0     93.5       24    168.4    168.4       76     0.000     0.000     0.000     0.000       91        0        0        0        2       31       19     9.802       41     28.0    2.744   -9.900     1.08    0.000    0.000       11        9     2033  Maize_short_Cahul_22May_Optimum_85_NCC.PRM
  Tot(54)       22        5     2034    125.1    507.8   1231.3   464.00      0.0    123.1      2.0      3.6      0.0    120.1       51    214.5    214.0       81     0.000     0.000     0.000     0.000      107        0        0        0        9       24       16    15.516       67     40.4    6.266   -9.900     1.87    0.000    0.000       11        9     2034  Maize_short_Cahul_22May_Optimum_85_NCC.PRM
  Tot(55)       22        5     2035     72.4    599.1   1383.5   468.00      0.0     71.4      1.0      0.0      0.0     97.4       30    188.3    188.8       74     0.000     0.000     0.000     0.000       95        0        0        0        4       23       20    11.779       50     31.9    3.753   -9.900     1.32    0.000    0.000       11        9     2035  Maize_short_Cahul_22May_Optimum_85_NCC.PRM
  Tot(56)       22        5     2036    184.1    501.4   1201.7   472.00      0.0    174.3      9.8      4.4      0.0    100.5       47    251.9    251.7       92     0.000     0.000     0.000     0.000      107        0        0        0       13        3        6    18.796       88     39.9    7.495   -9.900     2.13    0.000    0.000       11        9     2036  Maize_short_Cahul_22May_Optimum_85_NCC.PRM
  Tot(57)       22        5     2037     90.1    600.9   1439.6   476.00      0.0     89.5      0.6      0.0      0.0    107.9       31    184.9    185.1       77     0.000     0.000     0.000     0.000       97        0        0        0        4       27       18    11.638       48     34.4    4.000   -9.900     1.40    0.000    0.000       11        9     2037  Maize_short_Cahul_22May_Optimum_85_NCC.PRM
  Tot(58)       22        5     2038    147.1    622.3   1425.7   481.00      0.0    129.9     17.2     18.7      0.0    136.7       39    184.2    184.2       74     0.000     0.000     0.000     0.000       92        0        0        0        4       26       20    10.835       44     28.7    3.113   -9.900     0.98    0.000    0.000       11        9     2038  Maize_short_Cahul_22May_Optimum_85_NCC.PRM
  Tot(59)       22        5     2039     84.2    602.7   1383.4   485.00      0.0     83.3      0.9      0.3      0.0    113.6       32    177.5    177.5       76     0.000     0.000     0.000     0.000       94        0        0        0        6       27       19    11.074       45     31.0    3.433   -9.900     1.19    0.000    0.000       11        9     2039  Maize_short_Cahul_22May_Optimum_85_NCC.PRM
  Tot(60)       22        5     2040    115.7    593.0   1388.4   489.00      0.0    115.6      0.1      0.0      0.0    131.3       41    189.8    189.8       75     0.000     0.000     0.000     0.000       93        0        0        0        3       25       20    11.507       48     30.0    3.454   -9.900     1.13    0.000    0.000       11        9     2040  Maize_short_Cahul_22May_Optimum_85_NCC.PRM
  Tot(61)       22        5     2041    213.7    531.7   1325.2   494.00      0.0    197.9     15.8     24.8      0.0    148.3       72    247.9    247.8       81     0.000     0.000     0.000     0.000      107        0        0        0        5        4       18    16.921       70     39.2    6.633   -9.900     1.67    0.000    0.000       11        9     2041  Maize_short_Cahul_22May_Optimum_85_NCC.PRM
  Tot(62)       22        5     2042      7.9    704.0   1554.0   499.00      0.0      7.9      0.0      0.0      0.0     48.7       10    158.8    158.9       76     0.000     0.000     0.000     0.000       90        0        0        0        3       35       18     8.439       34     27.1    2.283   -9.900     1.11    0.000    0.000       11        9     2042  Maize_short_Cahul_22May_Optimum_85_NCC.PRM
  Tot(63)       22        5     2043     91.6    565.2   1445.0   504.00      0.0     91.2      0.4      0.0      0.0     84.4       30    222.1    221.6       80     0.000     0.000     0.000     0.000      107        0        0        0        3       19       15    16.013       65     40.3    6.446   -9.900     2.10    0.000    0.000       11        9     2043  Maize_short_Cahul_22May_Optimum_85_NCC.PRM
  Tot(64)       22        5     2044    124.3    554.5   1322.0   508.00      0.0    124.3      0.0      0.0      0.0    135.6       47    193.7    194.2       77     0.000     0.000     0.000     0.000       97        0        0        0        3       21       19    12.754       55     33.9    4.325   -9.900     1.34    0.000    0.000       11        9     2044  Maize_short_Cahul_22May_Optimum_85_NCC.PRM
  Tot(65)       22        5     2045    156.9    564.5   1297.1   513.00      0.0    136.1     20.8     29.9      0.0    117.8       41    193.0    193.0       75     0.000     0.000     0.000     0.000       96        0        0        0        9       23       20    11.760       49     32.9    3.872   -9.900     1.27    0.000    0.000       11        9     2045  Maize_short_Cahul_22May_Optimum_85_NCC.PRM
  Tot(66)       22        5     2046     83.3    591.2   1395.7   519.00      0.0     77.9      5.4     11.9      0.0     98.0       29    175.7    175.7       76     0.000     0.000     0.000     0.000       93        0        0        0        2       28       19    11.106       46     29.9    3.325   -9.900     1.23    0.000    0.000       11        9     2046  Maize_short_Cahul_22May_Optimum_85_NCC.PRM
  Tot(67)       22        5     2047     60.2    579.0   1375.6   524.00      0.0     60.2      0.0      0.0      0.0     91.9       29    180.0    180.0       77     0.000     0.000     0.000     0.000       97        0        0        0        5       23       19    12.280       50     34.0    4.173   -9.900     1.55    0.000    0.000       11        9     2047  Maize_short_Cahul_22May_Optimum_85_NCC.PRM
  Tot(68)       22        5     2048    162.8    606.8   1420.8   529.00      0.0    138.9     23.9     47.1      0.0    114.4       36    188.0    188.0       74     0.000     0.000     0.000     0.000       93        0        0        0        6       23       20    11.364       46     29.7    3.379   -9.900     1.12    0.000    0.000       11        9     2048  Maize_short_Cahul_22May_Optimum_85_NCC.PRM
  Tot(69)       22        5     2049     90.8    538.1   1315.2   535.00      0.0     89.2      1.6      0.0      0.0    107.2       40    198.3    198.3       80     0.000     0.000     0.000     0.000      102        0        0        0        6       20       18    14.290       58     39.0    5.580   -9.900     1.83    0.000    0.000       11        9     2049  Maize_short_Cahul_22May_Optimum_85_NCC.PRM
  Tot(70)       22        5     2050    112.7    504.5   1245.4   541.00      0.0    111.4      1.3      0.7      0.0    120.3       54    209.2    209.2       80     0.000     0.000     0.000     0.000      106        0        0        0        9       14       18    15.723       65     39.8    6.259   -9.900     1.90    0.000    0.000       11        9     2050  Maize_short_Cahul_22May_Optimum_85_NCC.PRM
  Tot(71)       22        5     2051    234.8    461.3   1238.9   546.00      0.0    228.3      6.5      2.8      0.0    131.0       67    261.0    259.4      100     0.000     0.000     0.000     0.000      107        0        0        0        6        1        0    23.089       97     40.0    9.236   -9.900     2.36    0.000    0.000       11        9     2051  Maize_short_Cahul_22May_Optimum_85_NCC.PRM
  Tot(72)       22        5     2052    130.1    627.5   1527.6   552.00      0.0    110.5     19.6     20.4      0.0    114.7       32    184.4    185.9       75     0.000     0.000     0.000     0.000       93        0        0        0        3       25       20    11.106       44     30.1    3.342   -9.900     1.17    0.000    0.000       11        9     2052  Maize_short_Cahul_22May_Optimum_85_NCC.PRM
  Tot(73)       22        5     2053    171.4    521.1   1346.2   558.00      0.0    158.0     13.4     30.4      0.0    121.0       55    225.1    225.1       81     0.000     0.000     0.000     0.000      103        0        0        0        9       11       19    15.319       61     39.7    6.079   -9.900     1.77    0.000    0.000       11        9     2053  Maize_short_Cahul_22May_Optimum_85_NCC.PRM
  Tot(74)       22        5     2054    171.6    565.3   1396.0   564.00      0.0    142.2     29.4     43.0      0.0    119.1       42    195.2    195.2       78     0.000     0.000     0.000     0.000       97        0        0        0        4       20       19    13.179       53     34.0    4.483   -9.900     1.44    0.000    0.000       11        9     2054  Maize_short_Cahul_22May_Optimum_85_NCC.PRM
  Tot(75)       22        5     2055    187.3    562.7   1299.4   571.00      0.0    174.4     12.9     20.8      0.0    156.4       59    215.8    215.8       80     0.000     0.000     0.000     0.000      102        0        0        0        6       13       19    14.792       61     38.7    5.718   -9.900     1.54    0.000    0.000       11        9     2055  Maize_short_Cahul_22May_Optimum_85_NCC.PRM
  Tot(76)       22        5     2056     50.2    718.5   1685.9   577.00      0.0     50.2      0.0      0.0      0.0     87.0       18    160.9    160.9       75     0.000     0.000     0.000     0.000       89        0        0        0        0       34       18     8.441       34     26.1    2.200   -9.900     0.92    0.000    0.000       11        9     2056  Maize_short_Cahul_22May_Optimum_85_NCC.PRM
  Tot(77)       22        5     2057    152.1    574.6   1450.0   583.00      0.0    139.7     12.4     13.5      0.0    106.9       43    242.0    242.0       80     0.000     0.000     0.000     0.000      107        0        0        0        4        8       19    16.316       66     39.2    6.400   -9.900     1.83    0.000    0.000       11        9     2057  Maize_short_Cahul_22May_Optimum_85_NCC.PRM
  Tot(78)       22        5     2058     67.6    640.5   1464.5   590.00      0.0     66.8      0.8      0.9      0.0     94.3       26    174.4    174.4       72     0.000     0.000     0.000     0.000       91        0        0        0        6       26       20    10.462       42     27.8    2.904   -9.900     1.10    0.000    0.000       11        9     2058  Maize_short_Cahul_22May_Optimum_85_NCC.PRM
  Tot(79)       22        5     2059    100.9    645.2   1514.0   597.00      0.0     90.7     10.2      8.6      0.0    112.4       31    180.1    180.1       72     0.000     0.000     0.000     0.000       92        0        0        0        4       24       20    10.858       43     29.0    3.146   -9.900     1.09    0.000    0.000       11        9     2059  Maize_short_Cahul_22May_Optimum_85_NCC.PRM
  Tot(80)       22        5     2060    141.2    500.0   1223.2   604.00      0.0    135.8      5.4      4.6      0.0     96.6       44    247.4    246.2       92     0.000     0.000     0.000     0.000      107        0        0        0       11        4        7    20.600       87     39.9    8.223   -9.900     2.39    0.000    0.000       11        9     2060  Maize_short_Cahul_22May_Optimum_85_NCC.PRM
  Tot(81)       22        5     2061    150.9    581.6   1381.1   611.00      0.0    135.4     15.5     37.8      0.0    105.8       41    213.8    214.9       73     0.000     0.000     0.000     0.000      107        0        0        0        7       21       23    14.187       57     39.5    5.600   -9.900     1.75    0.000    0.000       11        9     2061  Maize_short_Cahul_22May_Optimum_85_NCC.PRM
  Tot(82)       22        5     2062     85.7    650.8   1531.6   618.00      0.0     83.6      2.1      3.5      0.0    111.7       30    173.7    173.8       73     0.000     0.000     0.000     0.000       90        0        0        0        4       29       20    10.341       41     27.1    2.808   -9.900     0.99    0.000    0.000       11        9     2062  Maize_short_Cahul_22May_Optimum_85_NCC.PRM
  Tot(83)       22        5     2063     37.3    661.0   1535.2   625.00      0.0     37.3      0.0      0.0      0.0     73.9       18    167.1    167.1       76     0.000     0.000     0.000     0.000       91        0        0        0        3       31       19     9.929       39     28.0    2.782   -9.900     1.16    0.000    0.000       11        9     2063  Maize_short_Cahul_22May_Optimum_85_NCC.PRM
  Tot(84)       22        5     2064     69.8    637.2   1525.1   632.00      0.0     69.0      0.8      1.1      0.0     98.6       27    174.8    174.8       74     0.000     0.000     0.000     0.000       91        0        0        0        6       29       20    10.218       41     27.8    2.846   -9.900     1.06    0.000    0.000       11        9     2064  Maize_short_Cahul_22May_Optimum_85_NCC.PRM
  Tot(85)       22        5     2065    154.4    620.8   1550.6   639.00      0.0    144.5      9.9     11.6      0.0    142.8       45    206.4    206.4       77     0.000     0.000     0.000     0.000       97        0        0        0        1       20       20    13.116       52     33.9    4.443   -9.900     1.28    0.000    0.000       11        9     2065  Maize_short_Cahul_22May_Optimum_85_NCC.PRM
  Tot(86)       22        5     2066     16.5    695.0   1622.1   647.00      0.0     16.5      0.0      0.0      0.0     57.9       13    160.7    160.7       73     0.000     0.000     0.000     0.000       91        0        0        0        1       32       19     9.080       36     28.0    2.542   -9.900     1.17    0.000    0.000       11        9     2066  Maize_short_Cahul_22May_Optimum_85_NCC.PRM
  Tot(87)       22        5     2067    125.9    690.4   1640.0   654.00      0.0    116.0      9.9     17.5      0.0    128.0       30    174.0    174.0       76     0.000     0.000     0.000     0.000       90        0        0        0        1       32       19     9.807       39     26.9    2.642   -9.900     0.88    0.000    0.000       11        9     2067  Maize_short_Cahul_22May_Optimum_85_NCC.PRM
  Tot(88)       22        5     2068     69.6    627.2   1503.2   662.00      0.0     69.2      0.4      0.0      0.0    101.2       28    174.0    174.0       76     0.000     0.000     0.000     0.000       93        0        0        0        2       29       19    10.820       44     30.0    3.245   -9.900     1.19    0.000    0.000       11        9     2068  Maize_short_Cahul_22May_Optimum_85_NCC.PRM
  Tot(89)       22        5     2069    144.4    565.4   1434.4   669.00      0.0    136.6      7.8     19.2      0.0    126.8       47    211.9    211.9       78     0.000     0.000     0.000     0.000      107        0        0        0        3       19       21    15.159       61     39.6    5.997   -9.900     1.77    0.000    0.000       11        9     2069  Maize_short_Cahul_22May_Optimum_85_NCC.PRM
  Tot(90)       22        5     2070     83.4    600.5   1467.4   677.00      0.0     82.6      0.8      1.9      0.0    101.6       32    185.1    185.1       76     0.000     0.000     0.000     0.000       94        0        0        0        6       26       19    11.656       47     30.9    3.602   -9.900     1.28    0.000    0.000       11        9     2070  Maize_short_Cahul_22May_Optimum_85_NCC.PRM
  Tot(91)       22        5     2071    132.3    614.0   1563.8   685.00      0.0    121.2     11.1     11.2      0.0     99.7       33    229.8    229.8       80     0.000     0.000     0.000     0.000      104        0        0        0        1       12       19    15.124       60     39.5    5.972   -9.900     1.83    0.000    0.000       11        9     2071  Maize_short_Cahul_22May_Optimum_85_NCC.PRM
  Tot(92)       22        5     2072    178.0    543.8   1487.3   693.00      0.0    166.6     11.4     24.1      0.0    118.3       49    240.3    239.5       84     0.000     0.000     0.000     0.000      107        0        0        0        3       11       13    17.762       72     40.1    7.117   -9.900     1.98    0.000    0.000       11        9     2072  Maize_short_Cahul_22May_Optimum_85_NCC.PRM
  Tot(93)       22        5     2073    219.1    574.8   1489.8   701.00      0.0    147.9     71.2     59.6      0.0    117.6       38    176.3    177.1       76     0.000     0.000     0.000     0.000       93        0        0        0        3       27       20    11.289       45     30.0    3.390   -9.900     1.18    0.000    0.000       11        9     2073  Maize_short_Cahul_22May_Optimum_85_NCC.PRM
  Tot(94)       22        5     2074     77.6    688.1   1707.0   709.00      0.0     75.7      1.9      8.1      0.0    102.9       23    161.1    161.1       77     0.000     0.000     0.000     0.000       90        0        0        0        0       35       19     8.634       34     27.2    2.345   -9.900     0.91    0.000    0.000       11        9     2074  Maize_short_Cahul_22May_Optimum_85_NCC.PRM
  Tot(95)       22        5     2075     67.1    631.5   1508.1   717.00      0.0     66.9      0.2      0.4      0.0    101.4       26    166.7    166.7       77     0.000     0.000     0.000     0.000       92        0        0        0        2       32       18     9.985       40     29.1    2.908   -9.900     1.15    0.000    0.000       11        9     2075  Maize_short_Cahul_22May_Optimum_85_NCC.PRM
  Tot(96)       22        5     2076    162.6    581.0   1505.8   725.00      0.0    151.8     10.8     16.5      0.0    140.1       52    212.4    212.4       77     0.000     0.000     0.000     0.000      100        0        0        0        2       13       20    14.206       57     36.5    5.189   -9.900     1.48    0.000    0.000       11        9     2076  Maize_short_Cahul_22May_Optimum_85_NCC.PRM
  Tot(97)       22        5     2077     85.6    672.3   1578.4   733.00      0.0     83.4      2.2      0.0      0.0     90.7       23    170.7    170.7       73     0.000     0.000     0.000     0.000       91        0        0        0        0       28       20     9.870       40     27.9    2.751   -9.900     1.11    0.000    0.000       11        9     2077  Maize_short_Cahul_22May_Optimum_85_NCC.PRM
  Tot(98)       22        5     2078     52.3    664.8   1561.0   742.00      0.0     49.3      3.0      6.2      0.0     75.2       18    171.9    171.9       76     0.000     0.000     0.000     0.000       92        0        0        0        3       31       19     9.881       40     29.0    2.868   -9.900     1.18    0.000    0.000       11        9     2078  Maize_short_Cahul_22May_Optimum_85_NCC.PRM
  Tot(99)       22        5     2079     65.1    592.9   1548.7   750.00      0.0     64.9      0.2      0.0      0.0     96.0       28    176.0    176.0       78     0.000     0.000     0.000     0.000       96        0        0        0        3       29       18    11.307       46     33.2    3.750   -9.900     1.39    0.000    0.000       11        9     2079  Maize_short_Cahul_22May_Optimum_85_NCC.PRM
 Tot(100)       22        5     2080     62.8    592.8   1423.2   758.00      0.0     62.6      0.2      0.0      0.0     90.0       28    182.8    182.8       78     0.000     0.000     0.000     0.000       97        0        0        0        9       23       18    12.335       50     34.3    4.225   -9.900     1.56    0.000    0.000       11        9     2080  Maize_short_Cahul_22May_Optimum_85_NCC.PRM
 Tot(101)       22        5     2081     62.8    635.7   1552.3   767.00      0.0     61.7      1.1      2.6      0.0     89.7       25    174.6    174.6       74     0.000     0.000     0.000     0.000       92        0        0        0        3       28       20    10.330       42     28.9    2.989   -9.900     1.15    0.000    0.000       11        9     2081  Maize_short_Cahul_22May_Optimum_85_NCC.PRM
 Tot(102)       22        5     2082    213.5    532.6   1514.4   775.00      0.0    199.5     14.0     17.7      0.0    135.9       63    263.0    262.2       88     0.000     0.000     0.000     0.000      107        0        0        0        4       18       10    19.799       80     40.6    8.040   -9.900     2.02    0.000    0.000       11        9     2082  Maize_short_Cahul_22May_Optimum_85_NCC.PRM
 Tot(103)       22        5     2083     77.2    614.0   1607.4   784.00      0.0     77.2      0.0      0.0      0.0    102.7       31    181.6    182.3       77     0.000     0.000     0.000     0.000      107        0        0        0        1       25       28    11.458       47     32.3    3.705   -9.900     1.30    0.000    0.000       11        9     2083  Maize_short_Cahul_22May_Optimum_85_NCC.PRM
 Tot(104)       22        5     2084    100.6    559.3   1448.8   792.00      0.0    100.3      0.3      0.0      0.0     78.6       33    244.4    244.1       82     0.000     0.000     0.000     0.000      107        0        0        0        6        5       13    18.792       77     39.4    7.412   -9.900     2.29    0.000    0.000       11        9     2084  Maize_short_Cahul_22May_Optimum_85_NCC.PRM
 Tot(105)       22        5     2085     29.7    739.9   1778.0   801.00      0.0     29.7      0.0      0.0      0.0     72.3       13    156.6    156.9       78     0.000     0.000     0.000     0.000       97        0        0        0        0       36       16     8.514       35     29.6    2.522   -9.900     1.11    0.000    0.000       11        9     2085  Maize_short_Cahul_22May_Optimum_85_NCC.PRM
 Tot(106)       22        5     2086     90.8    596.5   1541.9   810.00      0.0     90.5      0.3      0.0      0.0     97.0       33    214.1    214.1       79     0.000     0.000     0.000     0.000      107        0        0        0        2       13       19    15.307       63     39.3    6.014   -9.900     1.93    0.000    0.000       11        9     2086  Maize_short_Cahul_22May_Optimum_85_NCC.PRM
 Tot(107)       22        5     2087    129.3    588.4   1488.2   818.00      0.0    126.5      2.8      7.5      0.0    129.7       47    206.1    206.1       78     0.000     0.000     0.000     0.000      100        0        0        0        5       18       20    13.685       56     36.7    5.025   -9.900     1.50    0.000    0.000       11        9     2087  Maize_short_Cahul_22May_Optimum_85_NCC.PRM
 Tot(108)       22        5     2088    159.9    651.2   1673.5   827.00      0.0    119.1     40.8     43.5      0.0    107.0       29    172.3    172.3       76     0.000     0.000     0.000     0.000       92        0        0        0        1       28       19    10.264       42     29.0    2.980   -9.900     1.09    0.000    0.000       11        9     2088  Maize_short_Cahul_22May_Optimum_85_NCC.PRM
 Tot(109)       22        5     2089     55.8    696.9   1598.3   836.00      0.0     55.8      0.0      0.0      0.0     90.0       21    170.1    170.1       77     0.000     0.000     0.000     0.000       92        0        0        0        4       31       19     9.926       41     29.0    2.881   -9.900     1.12    0.000    0.000       11        9     2089  Maize_short_Cahul_22May_Optimum_85_NCC.PRM
 Tot(110)       22        5     2090     68.2    672.6   1648.7   845.00      0.0     67.2      1.0      0.6      0.0    101.9       24    166.9    166.9       77     0.000     0.000     0.000     0.000       93        0        0        0        1       33       18     9.807       40     30.1    2.953   -9.900     1.12    0.000    0.000       11        9     2090  Maize_short_Cahul_22May_Optimum_85_NCC.PRM
 Tot(111)       22        5     2091    134.7    566.9   1555.0   854.00      0.0    127.2      7.5     22.8      0.0    112.5       44    210.0    210.0       79     0.000     0.000     0.000     0.000      102        0        0        0        1       14       19    14.499       60     38.7    5.605   -9.900     1.74    0.000    0.000       11        9     2091  Maize_short_Cahul_22May_Optimum_85_NCC.PRM
 Tot(112)       22        5     2092    102.0    679.1   1672.5   863.00      0.0    100.9      1.1      1.4      0.0    124.3       33    174.9    174.9       73     0.000     0.000     0.000     0.000       90        0        0        0        1       27       20    10.020       41     27.2    2.724   -9.900     0.93    0.000    0.000       11        9     2092  Maize_short_Cahul_22May_Optimum_85_NCC.PRM
 Tot(113)       22        5     2093    157.0    671.7   1722.2   872.00      0.0    155.0      2.0      0.0      0.0    155.7       48    214.3    214.3       75     0.000     0.000     0.000     0.000       96        0        0        0        1       17       21    12.644       52     32.5    4.108   -9.900     1.13    0.000    0.000       11        9     2093  Maize_short_Cahul_22May_Optimum_85_NCC.PRM
 Tot(114)       22        5     2094     54.0    636.3   1648.8   881.00      0.0     51.6      2.4      4.8      0.0     82.7       22    168.8    168.8       78     0.000     0.000     0.000     0.000       94        0        0        0        2       30       18    10.531       43     31.4    3.307   -9.900     1.33    0.000    0.000       11        9     2094  Maize_short_Cahul_22May_Optimum_85_NCC.PRM
 Tot(115)       22        5     2095    179.8    581.7   1605.8   890.00      0.0    165.9     13.9     23.4      0.0    152.8       57    205.1    205.1       78     0.000     0.000     0.000     0.000      100        0        0        0        1       15       19    13.684       57     36.7    5.028   -9.900     1.41    0.000    0.000       11        9     2095  Maize_short_Cahul_22May_Optimum_85_NCC.PRM
 Tot(116)       22        5     2096     99.1    694.5   1742.6   899.00      0.0     99.1      0.0      0.0      0.0    123.9       31    175.3    175.3       73     0.000     0.000     0.000     0.000       92        0        0        0        0       28       20    10.120       42     29.1    2.945   -9.900     1.02    0.000    0.000       11        9     2096  Maize_short_Cahul_22May_Optimum_85_NCC.PRM
 Tot(117)       22        5     2097     73.3    725.5   1726.0   908.00      0.0     73.1      0.2      0.0      0.0    106.8       22    171.2    171.2       79     0.000     0.000     0.000     0.000       96        0        0        0        1       32       18    10.236       43     33.2    3.398   -9.900     1.23    0.000    0.000       11        9     2097  Maize_short_Cahul_22May_Optimum_85_NCC.PRM
 Tot(118)       22        5     2098    172.0    615.1   1619.3   917.00      0.0    155.4     16.6     27.2      0.0    124.2       44    221.5    221.5       79     0.000     0.000     0.000     0.000      103        0        0        0        2       14       19    14.359       60     39.6    5.685   -9.900     1.65    0.000    0.000       11        9     2098  Maize_short_Cahul_22May_Optimum_85_NCC.PRM
 Tot(119)       22        5     2099     71.6    615.9   1579.4   927.00      0.0     70.5      1.1      0.0      0.0     87.1       29    202.2    202.2       77     0.000     0.000     0.000     0.000      103        0        0        0        2       12       19    13.934       58     39.2    5.469   -9.900     1.89    0.000    0.000       11        9     2099  Maize_short_Cahul_22May_Optimum_85_NCC.PRM
