AquaCrop 7.0 (August 2022) - Output created on (date) : 23-11-2022   at (time) : 11:42:33

    RunNr     Day1   Month1    Year1     Rain      ETo       GD     CO2      Irri   Infilt   Runoff    Drain   Upflow        E     E/Ex       Tr      TrW   Tr/Trx    SaltIn   SaltOut    SaltUp  SaltProf     Cycle   SaltStr  FertStr  WeedStr  TempStr   ExpStr   StoStr  BioMass  Brelative   HI    Y(dry)  Y(fresh)    WPet      Bin     Bout     DayN   MonthN    YearN
                                           mm       mm  degC.day    ppm        mm       mm       mm       mm       mm       mm        %       mm       mm        %    ton/ha    ton/ha    ton/ha    ton/ha      days       %        %        %        %        %        %    ton/ha        %       %    ton/ha   ton/ha    kg/m3   ton/ha   ton/ha
   Tot(1)        6        6     1981    179.0    479.2   1259.0   340.11      0.0    174.7      4.3      0.0      0.0    132.9       57    220.5    171.8       90     0.000     0.000     0.000     0.000      107        0       42       25       13       17        7    12.632       63     40.7    5.146   -9.900     1.46    0.000    0.000       26        9     1981  Maize_short_Cahul_6June_NonOptimum_85_MPI.PRM
   Tot(2)        6        6     1982    226.5    453.3   1300.2   341.22      0.0    224.6      1.9      0.0      0.0    156.5       76    260.5    202.3       99     0.000     0.000     0.000     0.000      107        0       42       25        6        2        1    16.687       74     40.1    6.696   -9.900     1.61    0.000    0.000       26        9     1982  Maize_short_Cahul_6June_NonOptimum_85_MPI.PRM
   Tot(3)        6        6     1983    282.8    466.4   1248.7   342.84      0.0    248.9     33.9     46.7      0.0    132.2       64    257.0    200.1       99     0.000     0.000     0.000     0.000      107        0       42       25        9        4        1    15.698       74     40.0    6.280   -9.900     1.61    0.000    0.000       26        9     1983  Maize_short_Cahul_6June_NonOptimum_85_MPI.PRM
   Tot(4)        6        6     1984    143.5    453.8   1166.3   344.40      0.0    140.3      3.2      4.9      0.0    123.3       58    220.8    171.5       91     0.000     0.000     0.000     0.000      107        0       42       25       11        9        9    13.921       65     40.2    5.600   -9.900     1.63    0.000    0.000       26        9     1984  Maize_short_Cahul_6June_NonOptimum_85_MPI.PRM
   Tot(5)        6        6     1985    324.4    461.9   1179.1   345.87      0.0    287.6     36.8     49.1      0.0    135.8       70    258.6    201.2       99     0.000     0.000     0.000     0.000      107        0       42       25       16        4        0    14.894       74     40.2    5.991   -9.900     1.52    0.000    0.000       26        9     1985  Maize_short_Cahul_6June_NonOptimum_85_MPI.PRM
   Tot(6)        6        6     1986    149.3    523.6   1330.5   347.19      0.0    143.2      6.1      7.2      0.0    118.6       48    231.7    181.9       83     0.000     0.000     0.000     0.000      107        0       42       25        8       15       14    12.336       57     40.4    4.979   -9.900     1.42    0.000    0.000       26        9     1986  Maize_short_Cahul_6June_NonOptimum_85_MPI.PRM
   Tot(7)        6        6     1987    210.0    499.3   1282.2   348.98      0.0    199.7     10.3      5.6      0.0    126.8       54    262.1    203.0       98     0.000     0.000     0.000     0.000      107        0       42       25        9        6        2    15.230       73     40.3    6.132   -9.900     1.58    0.000    0.000       26        9     1987  Maize_short_Cahul_6June_NonOptimum_85_MPI.PRM
   Tot(8)        6        6     1988    164.3    492.5   1317.1   351.45      0.0    154.4      9.9      0.0      0.0    107.7       41    206.4    164.1       87     0.000     0.000     0.000     0.000      107        0       42       25        9       24        8    11.594       55     40.7    4.724   -9.900     1.50    0.000    0.000       26        9     1988  Maize_short_Cahul_6June_NonOptimum_85_MPI.PRM
   Tot(9)        6        6     1989    263.2    446.7   1239.6   352.89      0.0    252.6     10.6      6.9      0.0    133.6       65    242.4    187.8      100     0.000     0.000     0.000     0.000      107        0       42       25       11        3        0    15.476       75     40.1    6.209   -9.900     1.65    0.000    0.000       26        9     1989  Maize_short_Cahul_6June_NonOptimum_85_MPI.PRM
  Tot(10)        6        6     1990    126.8    508.1   1226.1   354.16      0.0    126.2      0.6      0.0      0.0    119.2       45    208.6    165.6       87     0.000     0.000     0.000     0.000      107        0       42       25       13       18       13    11.418       58     40.4    4.618   -9.900     1.41    0.000    0.000       26        9     1990  Maize_short_Cahul_6June_NonOptimum_85_MPI.PRM
  Tot(11)        6        6     1991    222.0    443.1   1313.0   355.48      0.0    209.4     12.6     21.9      0.0    124.4       61    240.4    185.9      100     0.000     0.000     0.000     0.000      107        0       42       25        8        3        0    15.787       75     40.2    6.340   -9.900     1.74    0.000    0.000       26        9     1991  Maize_short_Cahul_6June_NonOptimum_85_MPI.PRM
  Tot(12)        6        6     1992    139.3    517.8   1313.1   356.27      0.0    135.9      3.4      6.6      0.0    123.4       48    211.3    168.5       82     0.000     0.000     0.000     0.000      107        0       42       25       10       22       15    10.907       52     40.5    4.422   -9.900     1.32    0.000    0.000       26        9     1992  Maize_short_Cahul_6June_NonOptimum_85_MPI.PRM
  Tot(13)        6        6     1993    141.0    501.0   1168.2   356.95      0.0    140.8      0.2      0.0      0.0    104.1       42    227.4    177.4       93     0.000     0.000     0.000     0.000      107        0       42       25       16       16        5    12.979       66     40.7    5.276   -9.900     1.59    0.000    0.000       26        9     1993  Maize_short_Cahul_6June_NonOptimum_85_MPI.PRM
  Tot(14)        6        6     1994    201.5    505.3   1432.3   358.63      0.0    160.3     41.2     32.0      0.0     90.1       36    252.3    197.9       90     0.000     0.000     0.000     0.000      107        0       42       25        3       18        8    14.469       62     40.7    5.885   -9.900     1.72    0.000    0.000       26        9     1994  Maize_short_Cahul_6June_NonOptimum_85_MPI.PRM
  Tot(15)        6        6     1995    191.4    495.2   1340.3   360.62      0.0    188.1      3.3      0.0      0.0    121.7       48    237.3    186.5       95     0.000     0.000     0.000     0.000      107        0       42       25        9       16        3    14.208       68     40.7    5.781   -9.900     1.61    0.000    0.000       26        9     1995  Maize_short_Cahul_6June_NonOptimum_85_MPI.PRM
  Tot(16)        6        6     1996    216.5    496.5   1218.6   362.37      0.0    188.4     28.1      0.0      0.0     84.8       28    192.8    153.3       97     0.000     0.000     0.000     0.000      107        0       42       25       17       27        1    11.832       63     40.9    4.840   -9.900     1.74    0.000    0.000       26        9     1996  Maize_short_Cahul_6June_NonOptimum_85_MPI.PRM
  Tot(17)        6        6     1997    374.7    437.8   1219.0   363.47      0.0    331.6     43.1     21.0      0.0    154.2       73    216.0    168.3      100     0.000     0.000     0.000     0.000      107        0       42       25       13        1        0    14.898       75     40.0    5.959   -9.900     1.61    0.000    0.000       26        9     1997  Maize_short_Cahul_6June_NonOptimum_85_MPI.PRM
  Tot(18)        6        6     1998    210.6    490.9   1290.8   366.50      0.0    202.8      7.8      2.7      0.0    137.5       57    216.7    170.1       88     0.000     0.000     0.000     0.000      107        0       42       25       11       22        7    12.094       58     40.7    4.927   -9.900     1.39    0.000    0.000       26        9     1998  Maize_short_Cahul_6June_NonOptimum_85_MPI.PRM
  Tot(19)        6        6     1999    276.9    515.7   1442.8   368.14      0.0    264.5     12.4     18.9      0.0    146.3       54    262.2    204.2      100     0.000     0.000     0.000     0.000      107        0       42       25        5       12        0    16.063       72     40.4    6.493   -9.900     1.59    0.000    0.000       26        9     1999  Maize_short_Cahul_6June_NonOptimum_85_MPI.PRM
  Tot(20)        6        6     2000    158.9    542.0   1294.7   369.41      0.0    148.1     10.8      0.0      0.0     98.1       31    203.4    163.5       85     0.000     0.000     0.000     0.000      107        0       42       25       12       25        8    10.948       52     40.7    4.458   -9.900     1.48    0.000    0.000       26        9     2000  Maize_short_Cahul_6June_NonOptimum_85_MPI.PRM
  Tot(21)        6        6     2001    221.7    527.9   1398.2   371.07      0.0    201.1     20.6      0.3      0.0    135.1       46    194.9    155.7       82     0.000     0.000     0.000     0.000      107        0       42       25        6       27       12    10.151       45     40.6    4.121   -9.900     1.25    0.000    0.000       26        9     2001  Maize_short_Cahul_6June_NonOptimum_85_MPI.PRM
  Tot(22)        6        6     2002    281.0    528.2   1422.2   373.16      0.0    245.2     35.8     12.8      0.0    108.3       38    260.4    202.4      100     0.000     0.000     0.000     0.000      107        0       42       25        6        5        0    15.877       72     40.0    6.351   -9.900     1.72    0.000    0.000       26        9     2002  Maize_short_Cahul_6June_NonOptimum_85_MPI.PRM
  Tot(23)        6        6     2003    140.3    548.0   1349.4   375.80      0.0    134.9      5.4      0.0      0.0    100.9       34    221.2    174.5       86     0.000     0.000     0.000     0.000      107        0       42       25        9       17       10    12.222       57     40.4    4.941   -9.900     1.53    0.000    0.000       26        9     2003  Maize_short_Cahul_6June_NonOptimum_85_MPI.PRM
  Tot(24)        6        6     2004    228.7    508.4   1288.8   377.49      0.0    221.5      7.2      3.7      0.0    113.5       45    258.8    200.7      100     0.000     0.000     0.000     0.000      107        0       42       25        9        6        0    15.613       73     40.2    6.270   -9.900     1.68    0.000    0.000       26        9     2004  Maize_short_Cahul_6June_NonOptimum_85_MPI.PRM
  Tot(25)        6        6     2005    352.7    506.6   1346.7   379.80      0.0    327.3     25.4     34.4      0.0    134.4       59    291.2    224.6      100     0.000     0.000     0.000     0.000      107        0       42       25        5        2        0    16.877       74     40.0    6.757   -9.900     1.59    0.000    0.000       26        9     2005  Maize_short_Cahul_6June_NonOptimum_85_MPI.PRM
  Tot(26)        6        6     2006    156.6    550.8   1344.7   381.90      0.0    154.3      2.3      0.0      0.0    113.1       36    238.3    190.8       93     0.000     0.000     0.000     0.000      107        0       42       25        6       24        5    13.397       60     40.6    5.444   -9.900     1.55    0.000    0.000       26        9     2006  Maize_short_Cahul_6June_NonOptimum_85_MPI.PRM
  Tot(27)        6        6     2007    159.1    626.4   1410.5   383.77      0.0    157.4      1.7      0.0      0.0    124.0       31    229.3    184.3       92     0.000     0.000     0.000     0.000      107        0       42       25        8       25        6    11.866       55     40.2    4.774   -9.900     1.35    0.000    0.000       26        9     2007  Maize_short_Cahul_6June_NonOptimum_85_MPI.PRM
  Tot(28)        6        6     2008    197.7    569.5   1367.7   385.59      0.0    188.2      9.5      0.0      0.0    129.2       43    217.9    172.8       80     0.000     0.000     0.000     0.000      107        0       42       25       12       19       12    10.811       53     40.3    4.359   -9.900     1.26    0.000    0.000       26        9     2008  Maize_short_Cahul_6June_NonOptimum_85_MPI.PRM
  Tot(29)        6        6     2009    176.3    588.9   1438.2   387.37      0.0    169.3      7.0      0.0      0.0    132.6       41    237.0    187.7       86     0.000     0.000     0.000     0.000      107        0       42       25        4       23       12    12.101       52     40.6    4.910   -9.900     1.33    0.000    0.000       26        9     2009  Maize_short_Cahul_6June_NonOptimum_85_MPI.PRM
  Tot(30)        6        6     2010    247.1    521.6   1434.9   389.85      0.0    228.6     18.5     34.5      0.0    144.4       58    242.2    189.5       87     0.000     0.000     0.000     0.000      107        0       42       25        7       15        9    13.350       60     40.6    5.418   -9.900     1.40    0.000    0.000       26        9     2010  Maize_short_Cahul_6June_NonOptimum_85_MPI.PRM
  Tot(31)        6        6     2011    144.1    558.1   1426.3   391.63      0.0    132.7     11.4     12.7      0.0    119.0       40    215.7    171.5       81     0.000     0.000     0.000     0.000      104        0       42       25        3       20       18    10.932       46     40.0    4.370   -9.900     1.31    0.000    0.000       26        9     2011  Maize_short_Cahul_6June_NonOptimum_85_MPI.PRM
  Tot(32)        6        6     2012    172.7    628.8   1504.7   393.82      0.0    166.6      6.1      6.3      0.0    136.7       36    225.7    180.3       82     0.000     0.000     0.000     0.000      107        0       42       25        3       30       14    10.719       46     40.3    4.319   -9.900     1.19    0.000    0.000       26        9     2012  Maize_short_Cahul_6June_NonOptimum_85_MPI.PRM
  Tot(33)        6        6     2013    278.4    535.9   1388.7   396.48      0.0    252.5     25.9     25.8      0.0    138.7       51    237.0    186.7       89     0.000     0.000     0.000     0.000      107        0       42       25        8       19        6    13.333       61     40.7    5.431   -9.900     1.45    0.000    0.000       26        9     2013  Maize_short_Cahul_6June_NonOptimum_85_MPI.PRM
  Tot(34)        6        6     2014    153.0    567.9   1422.4   398.55      0.0    152.8      0.2      0.0      0.0    140.1       49    227.5    180.3       79     0.000     0.000     0.000     0.000      107        0       42       25        6       23       20    11.308       50     39.8    4.503   -9.900     1.23    0.000    0.000       26        9     2014  Maize_short_Cahul_6June_NonOptimum_85_MPI.PRM
  Tot(35)        6        6     2015    140.8    604.0   1480.5   402.00      0.0    138.4      2.4      0.1      0.0    131.6       39    216.5    172.7       78     0.000     0.000     0.000     0.000      107        0       42       25        3       29       19    10.432       44     40.3    4.205   -9.900     1.21    0.000    0.000       26        9     2015  Maize_short_Cahul_6June_NonOptimum_85_MPI.PRM
  Tot(36)        6        6     2016    168.2    577.0   1458.2   404.00      0.0    155.6     12.6      0.1      0.0    129.7       38    195.0    156.2       81     0.000     0.000     0.000     0.000      107        0       42       25        7       28       16     9.600       43     40.3    3.869   -9.900     1.19    0.000    0.000       26        9     2016  Maize_short_Cahul_6June_NonOptimum_85_MPI.PRM
  Tot(37)        6        6     2017    233.5    561.6   1453.7   407.00      0.0    202.3     31.2      8.2      0.0    137.4       53    277.3    215.7       88     0.000     0.000     0.000     0.000      107        0       42       25        4        6       13    14.292       61     39.7    5.672   -9.900     1.37    0.000    0.000       26        9     2017  Maize_short_Cahul_6June_NonOptimum_85_MPI.PRM
  Tot(38)        6        6     2018    165.7    536.5   1498.9   410.00      0.0    161.3      4.4      0.0      0.0    114.1       46    258.3    201.3       87     0.000     0.000     0.000     0.000      107        0       42       25        4        5       13    14.035       60     39.8    5.583   -9.900     1.50    0.000    0.000       26        9     2018  Maize_short_Cahul_6June_NonOptimum_85_MPI.PRM
  Tot(39)        6        6     2019    147.0    605.5   1482.4   413.00      0.0    144.2      2.8      0.6      0.0    137.9       39    196.3    155.7       78     0.000     0.000     0.000     0.000       98        0       42       25        1       22       19     9.650       42     34.8    3.360   -9.900     1.02    0.000    0.000       26        9     2019  Maize_short_Cahul_6June_NonOptimum_85_MPI.PRM
  Tot(40)        6        6     2020    113.2    501.5   1215.0   416.00      0.0    112.8      0.4      0.0      0.0     89.2       34    218.4    171.0       93     0.000     0.000     0.000     0.000      107        0       42       25       15       16        5    12.990       64     40.6    5.268   -9.900     1.71    0.000    0.000       26        9     2020  Maize_short_Cahul_6June_NonOptimum_85_MPI.PRM
  Tot(41)        6        6     2021    167.0    447.2   1127.0   419.00      0.0    161.8      5.2     15.9      0.0    120.6       66    237.6    184.6       92     0.000     0.000     0.000     0.000      107        0       42       25       15        3        8    14.648       67     40.0    5.866   -9.900     1.64    0.000    0.000       26        9     2021  Maize_short_Cahul_6June_NonOptimum_85_MPI.PRM
  Tot(42)        6        6     2022    134.9    486.9   1179.3   422.00      0.0    124.8     10.1     14.6      0.0    122.6       50    190.9    151.3       83     0.000     0.000     0.000     0.000      107        0       42       25       14       21       16    10.825       51     40.4    4.376   -9.900     1.40    0.000    0.000       26        9     2022  Maize_short_Cahul_6June_NonOptimum_85_MPI.PRM
  Tot(43)        6        6     2023    311.9    476.9   1171.6   425.00      0.0    260.1     51.8     22.9      0.0     90.0       36    215.7    167.9      100     0.000     0.000     0.000     0.000      107        0       42       25       16        5        0    14.284       72     40.0    5.714   -9.900     1.87    0.000    0.000       26        9     2023  Maize_short_Cahul_6June_NonOptimum_85_MPI.PRM
  Tot(44)        6        6     2024    139.4    429.3   1035.4   428.00      0.0    138.0      1.4      0.0      0.0     85.5       40    192.4    150.0      100     0.000     0.000     0.000     0.000      107        0       42       25       23       10        0    13.464       73     40.5    5.449   -9.900     1.96    0.000    0.000       26        9     2024  Maize_short_Cahul_6June_NonOptimum_85_MPI.PRM
  Tot(45)        6        6     2025    470.3    433.0   1081.9   431.00      0.0    330.3    140.0     46.0      0.0     95.5       39    178.2    139.6      100     0.000     0.000     0.000     0.000      107        0       42       25       24        6        0    12.314       72     40.0    4.929   -9.900     1.80    0.000    0.000       26        9     2025  Maize_short_Cahul_6June_NonOptimum_85_MPI.PRM
  Tot(46)        6        6     2026    185.2    484.3   1319.9   435.00      0.0    178.7      6.5      0.0      0.0     96.8       39    240.5    186.9      100     0.000     0.000     0.000     0.000      107        0       42       25        9        8        0    16.196       73     40.3    6.528   -9.900     1.94    0.000    0.000       26        9     2026  Maize_short_Cahul_6June_NonOptimum_85_MPI.PRM
  Tot(47)        6        6     2027    253.5    415.2   1114.6   438.00      0.0    244.8      8.7     14.5      0.0    129.1       62    194.7    151.9      100     0.000     0.000     0.000     0.000      107        0       42       25       17        1        0    15.053       75     40.0    6.027   -9.900     1.86    0.000    0.000       26        9     2027  Maize_short_Cahul_6June_NonOptimum_85_MPI.PRM
  Tot(48)        6        6     2028    139.4    463.1   1176.9   442.00      0.0    137.9      1.5      0.0      0.0    105.7       46    207.2    162.4       89     0.000     0.000     0.000     0.000      107        0       42       25       11       18        7    13.002       60     40.7    5.295   -9.900     1.69    0.000    0.000       26        9     2028  Maize_short_Cahul_6June_NonOptimum_85_MPI.PRM
  Tot(49)        6        6     2029    244.6    408.8   1181.0   445.00      0.0    213.2     31.4     54.1      0.0    116.1       69    232.3    179.0       99     0.000     0.000     0.000     0.000      107        0       42       25       10        2        1    16.617       75     40.1    6.660   -9.900     1.91    0.000    0.000       26        9     2029  Maize_short_Cahul_6June_NonOptimum_85_MPI.PRM
  Tot(50)        6        6     2030    183.2    476.3   1045.4   449.00      0.0    171.5     11.7     13.9      0.0     91.8       39    206.8    163.5       98     0.000     0.000     0.000     0.000      107        0       42       25       22       14        2    13.105       69     40.5    5.303   -9.900     1.78    0.000    0.000       26        9     2030  Maize_short_Cahul_6June_NonOptimum_85_MPI.PRM
  Tot(51)        6        6     2031    283.3    425.3   1039.3   452.00      0.0    231.6     51.7      7.6      0.0    130.9       76    212.8    165.2      100     0.000     0.000     0.000     0.000      107        0       42       25       26        2        0    13.673       75     40.1    5.476   -9.900     1.59    0.000    0.000       26        9     2031  Maize_short_Cahul_6June_NonOptimum_85_MPI.PRM
  Tot(52)        6        6     2032    153.8    542.4   1337.3   456.00      0.0    134.8     19.0     15.1      0.0    108.5       38    218.8    173.1       84     0.000     0.000     0.000     0.000      107        0       42       25        8       21       13    12.490       53     40.6    5.070   -9.900     1.55    0.000    0.000       26        9     2032  Maize_short_Cahul_6June_NonOptimum_85_MPI.PRM
  Tot(53)        6        6     2033    265.7    472.1   1118.1   460.00      0.0    256.2      9.5      0.0      0.0    127.9       56    223.2    172.9      100     0.000     0.000     0.000     0.000      107        0       42       25       18        7        0    14.442       74     40.3    5.818   -9.900     1.66    0.000    0.000       26        9     2033  Maize_short_Cahul_6June_NonOptimum_85_MPI.PRM
  Tot(54)        6        6     2034    176.5    526.5   1360.9   464.00      0.0    168.9      7.6      0.0      0.0    116.8       44    255.6    200.1       95     0.000     0.000     0.000     0.000      107        0       42       25        6        8        5    15.557       67     40.0    6.224   -9.900     1.67    0.000    0.000       26        9     2034  Maize_short_Cahul_6June_NonOptimum_85_MPI.PRM
  Tot(55)        6        6     2035    105.0    500.0   1168.8   468.00      0.0    103.9      1.1      3.2      0.0    105.5       39    186.4    147.9       86     0.000     0.000     0.000     0.000      107        0       42       25       16       20        9    11.231       56     40.7    4.567   -9.900     1.56    0.000    0.000       26        9     2035  Maize_short_Cahul_6June_NonOptimum_85_MPI.PRM
  Tot(56)        6        6     2036     47.4    637.5   1455.6   472.00      0.0     47.4      0.0      0.0      0.0     84.3       20    169.7    137.2       80     0.000     0.000     0.000     0.000       97        0       42       25        4       32       17     8.191       35     34.2    2.804   -9.900     1.11    0.000    0.000       26        9     2036  Maize_short_Cahul_6June_NonOptimum_85_MPI.PRM
  Tot(57)        6        6     2037    170.2    454.8   1202.4   476.00      0.0    152.7     17.5     29.4      0.0    110.1       56    207.9    162.6       85     0.000     0.000     0.000     0.000      107        0       42       25       11       16       13    13.050       58     40.4    5.273   -9.900     1.66    0.000    0.000       26        9     2037  Maize_short_Cahul_6June_NonOptimum_85_MPI.PRM
  Tot(58)        6        6     2038    246.1    497.8   1136.8   481.00      0.0    212.2     33.9     13.5      0.0     84.9       33    227.6    179.0      100     0.000     0.000     0.000     0.000      107        0       42       25       20       12        0    13.615       70     40.2    5.480   -9.900     1.75    0.000    0.000       26        9     2038  Maize_short_Cahul_6June_NonOptimum_85_MPI.PRM
  Tot(59)        6        6     2039    233.1    453.4   1248.6   485.00      0.0    221.9     11.2      1.7      0.0    113.7       51    231.7    178.3      100     0.000     0.000     0.000     0.000      107        0       42       25        8        3        0    16.847       74     40.0    6.742   -9.900     1.95    0.000    0.000       26        9     2039  Maize_short_Cahul_6June_NonOptimum_85_MPI.PRM
  Tot(60)        6        6     2040    125.9    442.5   1135.2   489.00      0.0    124.0      1.9      4.7      0.0     96.3       50    224.3    175.9       96     0.000     0.000     0.000     0.000      107        0       42       25       14        9        5    15.012       69     40.2    6.038   -9.900     1.88    0.000    0.000       26        9     2040  Maize_short_Cahul_6June_NonOptimum_85_MPI.PRM
  Tot(61)        6        6     2041    243.1    490.5   1134.8   494.00      0.0    221.8     21.3      0.0      0.0    106.9       44    230.9    180.5      100     0.000     0.000     0.000     0.000      107        0       42       25       16        6        0    15.243       73     40.2    6.126   -9.900     1.81    0.000    0.000       26        9     2041  Maize_short_Cahul_6June_NonOptimum_85_MPI.PRM
  Tot(62)        6        6     2042    237.2    461.3   1179.5   499.00      0.0    209.7     27.5      0.0      0.0     88.0       39    226.6    176.2      100     0.000     0.000     0.000     0.000      107        0       42       25       12        4        0    15.912       73     40.0    6.365   -9.900     2.02    0.000    0.000       26        9     2042  Maize_short_Cahul_6June_NonOptimum_85_MPI.PRM
  Tot(63)        6        6     2043    200.5    488.0   1363.4   504.00      0.0    193.9      6.6     11.9      0.0    129.3       57    240.4    187.6       91     0.000     0.000     0.000     0.000      107        0       42       25        6        9        7    15.646       66     40.2    6.283   -9.900     1.70    0.000    0.000       26        9     2043  Maize_short_Cahul_6June_NonOptimum_85_MPI.PRM
  Tot(64)        6        6     2044    110.9    554.5   1332.0   508.00      0.0    108.9      2.0      0.0      0.0     84.4       29    238.9    188.2       90     0.000     0.000     0.000     0.000      107        0       42       25        8       17       10    13.929       61     40.1    5.588   -9.900     1.73    0.000    0.000       26        9     2044  Maize_short_Cahul_6June_NonOptimum_85_MPI.PRM
  Tot(65)        6        6     2045    127.6    530.9   1379.6   513.00      0.0    125.5      2.1      1.8      0.0     97.4       33    224.8    176.6       92     0.000     0.000     0.000     0.000      107        0       42       25        6       16        7    14.443       61     40.2    5.808   -9.900     1.80    0.000    0.000       26        9     2045  Maize_short_Cahul_6June_NonOptimum_85_MPI.PRM
  Tot(66)        6        6     2046    201.6    455.9   1325.2   519.00      0.0    191.4     10.2     25.7      0.0    129.7       68    246.9    192.6       93     0.000     0.000     0.000     0.000      107        0       42       25        5       12        6    16.170       66     40.5    6.554   -9.900     1.74    0.000    0.000       26        9     2046  Maize_short_Cahul_6June_NonOptimum_85_MPI.PRM
  Tot(67)        6        6     2047    296.9    436.2   1207.9   524.00      0.0    272.2     24.7      3.3      0.0    109.9       48    196.5    153.7      100     0.000     0.000     0.000     0.000      107        0       42       25       11        4        0    15.879       74     40.1    6.365   -9.900     2.08    0.000    0.000       26        9     2047  Maize_short_Cahul_6June_NonOptimum_85_MPI.PRM
  Tot(68)        6        6     2048     70.6    570.3   1367.0   529.00      0.0     70.5      0.1      0.0      0.0     73.8       23    201.4    161.5       83     0.000     0.000     0.000     0.000      107        0       42       25        8       26       17    11.002       47     39.9    4.388   -9.900     1.59    0.000    0.000       26        9     2048  Maize_short_Cahul_6June_NonOptimum_85_MPI.PRM
  Tot(69)        6        6     2049    162.3    505.5   1287.6   535.00      0.0    159.4      2.9      0.9      0.0     98.6       47    272.4    210.5       93     0.000     0.000     0.000     0.000      107        0       42       25        9        5        7    16.247       68     40.1    6.523   -9.900     1.76    0.000    0.000       26        9     2049  Maize_short_Cahul_6June_NonOptimum_85_MPI.PRM
  Tot(70)        6        6     2050    155.4    490.5   1307.4   541.00      0.0    154.7      0.7      0.0      0.0    100.1       45    251.0    195.9       94     0.000     0.000     0.000     0.000      107        0       42       25        6        9        5    16.262       68     40.2    6.540   -9.900     1.86    0.000    0.000       26        9     2050  Maize_short_Cahul_6June_NonOptimum_85_MPI.PRM
  Tot(71)        6        6     2051    240.2    469.9   1225.7   546.00      0.0    227.9     12.3     21.9      0.0    120.8       52    237.0    185.0      100     0.000     0.000     0.000     0.000      107        0       42       25        9       14        0    16.793       72     40.6    6.826   -9.900     1.91    0.000    0.000       26        9     2051  Maize_short_Cahul_6June_NonOptimum_85_MPI.PRM
  Tot(72)        6        6     2052    155.9    503.4   1257.5   552.00      0.0    149.2      6.7      0.0      0.0     97.0       39    211.6    168.3       85     0.000     0.000     0.000     0.000      107        0       42       25       11       24        9    12.807       56     40.7    5.210   -9.900     1.69    0.000    0.000       26        9     2052  Maize_short_Cahul_6June_NonOptimum_85_MPI.PRM
  Tot(73)        6        6     2053    146.8    546.3   1342.2   558.00      0.0    145.2      1.6      1.4      0.0    129.8       47    231.5    181.8       88     0.000     0.000     0.000     0.000      107        0       42       25        8       17       11    13.775       59     40.5    5.576   -9.900     1.54    0.000    0.000       26        9     2053  Maize_short_Cahul_6June_NonOptimum_85_MPI.PRM
  Tot(74)        6        6     2054     66.7    559.1   1448.1   564.00      0.0     66.7      0.0      0.0      0.0     96.1       29    183.1    145.7       82     0.000     0.000     0.000     0.000      103        0       42       25        3       23       18    10.600       43     40.2    4.262   -9.900     1.53    0.000    0.000       26        9     2054  Maize_short_Cahul_6June_NonOptimum_85_MPI.PRM
  Tot(75)        6        6     2055    130.1    517.6   1308.4   571.00      0.0    127.6      2.5      0.0      0.0     87.4       35    243.2    190.0       92     0.000     0.000     0.000     0.000      107        0       42       25        7       10        6    15.283       64     40.1    6.129   -9.900     1.85    0.000    0.000       26        9     2055  Maize_short_Cahul_6June_NonOptimum_85_MPI.PRM
  Tot(76)        6        6     2056    142.2    522.9   1299.3   577.00      0.0    137.7      4.5      0.0      0.0     94.1       37    248.6    193.2       96     0.000     0.000     0.000     0.000      107        0       42       25        8        7        5    15.863       68     40.2    6.372   -9.900     1.86    0.000    0.000       26        9     2056  Maize_short_Cahul_6June_NonOptimum_85_MPI.PRM
  Tot(77)        6        6     2057    112.2    536.6   1317.7   583.00      0.0    110.7      1.5      3.0      0.0     97.7       36    220.5    175.1       85     0.000     0.000     0.000     0.000      107        0       42       25        8       22       12    12.635       54     40.5    5.112   -9.900     1.61    0.000    0.000       26        9     2057  Maize_short_Cahul_6June_NonOptimum_85_MPI.PRM
  Tot(78)        6        6     2058    227.7    448.2   1244.8   590.00      0.0    206.0     21.7      0.0      0.0    104.0       48    222.8    173.8      100     0.000     0.000     0.000     0.000      107        0       42       25        9        7        0    16.632       74     40.1    6.677   -9.900     2.04    0.000    0.000       26        9     2058  Maize_short_Cahul_6June_NonOptimum_85_MPI.PRM
  Tot(79)        6        6     2059    113.0    571.4   1447.9   597.00      0.0    104.8      8.2     17.5      0.0    101.2       35    200.9    160.4       75     0.000     0.000     0.000     0.000      107        0       42       25        5       26       21    10.793       44     40.1    4.329   -9.900     1.43    0.000    0.000       26        9     2059  Maize_short_Cahul_6June_NonOptimum_85_MPI.PRM
  Tot(80)        6        6     2060    108.4    556.0   1309.6   604.00      0.0    101.8      6.6      0.0      0.0     75.9       26    241.0    189.7       91     0.000     0.000     0.000     0.000      107        0       42       25        6       15        8    14.633       61     39.9    5.841   -9.900     1.84    0.000    0.000       26        9     2060  Maize_short_Cahul_6June_NonOptimum_85_MPI.PRM
  Tot(81)        6        6     2061    181.0    469.4   1150.1   611.00      0.0    171.6      9.4     15.5      0.0     90.6       39    208.8    164.3       95     0.000     0.000     0.000     0.000      107        0       42       25       19       18        3    13.443       67     40.8    5.484   -9.900     1.83    0.000    0.000       26        9     2061  Maize_short_Cahul_6June_NonOptimum_85_MPI.PRM
  Tot(82)        6        6     2062    179.5    478.4   1336.0   618.00      0.0    176.6      2.9      1.9      0.0    100.0       44    231.6    181.1       93     0.000     0.000     0.000     0.000      107        0       42       25        6       15        4    15.782       66     40.7    6.417   -9.900     1.94    0.000    0.000       26        9     2062  Maize_short_Cahul_6June_NonOptimum_85_MPI.PRM
  Tot(83)        6        6     2063    154.2    507.7   1322.6   625.00      0.0    150.6      3.6      2.5      0.0     95.7       37    231.4    180.3       98     0.000     0.000     0.000     0.000      107        0       42       25        9       11        1    15.764       70     40.4    6.372   -9.900     1.95    0.000    0.000       26        9     2063  Maize_short_Cahul_6June_NonOptimum_85_MPI.PRM
  Tot(84)        6        6     2064    172.4    512.1   1434.9   632.00      0.0    165.5      6.9      9.9      0.0    107.3       46    251.9    197.5       91     0.000     0.000     0.000     0.000      107        0       42       25        2       10        9    15.492       62     39.9    6.178   -9.900     1.72    0.000    0.000       26        9     2064  Maize_short_Cahul_6June_NonOptimum_85_MPI.PRM
  Tot(85)        6        6     2065    200.1    514.2   1278.7   639.00      0.0    191.7      8.4      3.6      0.0    113.9       46    238.5    186.1       95     0.000     0.000     0.000     0.000      107        0       42       25       12       16        4    14.665       67     40.8    5.979   -9.900     1.70    0.000    0.000       26        9     2065  Maize_short_Cahul_6June_NonOptimum_85_MPI.PRM
  Tot(86)        6        6     2066    155.7    604.5   1493.8   647.00      0.0    145.2     10.5      0.0      0.0     94.3       26    227.5    181.6       91     0.000     0.000     0.000     0.000      107        0       42       25        4       32        4    13.221       55     40.9    5.402   -9.900     1.68    0.000    0.000       26        9     2066  Maize_short_Cahul_6June_NonOptimum_85_MPI.PRM
  Tot(87)        6        6     2067    212.8    488.6   1314.0   654.00      0.0    199.8     13.0      0.0      0.0     91.5       38    237.6    184.8      100     0.000     0.000     0.000     0.000      107        0       42       25        7        7        0    17.099       73     40.1    6.865   -9.900     2.09    0.000    0.000       26        9     2067  Maize_short_Cahul_6June_NonOptimum_85_MPI.PRM
  Tot(88)        6        6     2068    109.2    528.3   1355.3   662.00      0.0    106.1      3.1      0.0      0.0     73.0       24    207.9    165.7       96     0.000     0.000     0.000     0.000      107        0       42       25        6       25        2    14.347       62     40.8    5.852   -9.900     2.08    0.000    0.000       26        9     2068  Maize_short_Cahul_6June_NonOptimum_85_MPI.PRM
  Tot(89)        6        6     2069    108.5    553.7   1439.8   669.00      0.0    105.0      3.5      6.9      0.0     83.9       29    229.2    181.1       90     0.000     0.000     0.000     0.000      107        0       42       25        3       13        8    14.990       62     40.1    6.012   -9.900     1.92    0.000    0.000       26        9     2069  Maize_short_Cahul_6June_NonOptimum_85_MPI.PRM
  Tot(90)        6        6     2070     50.3    605.2   1572.4   677.00      0.0     50.3      0.0      0.0      0.0     76.8       20    163.6    132.1       77     0.000     0.000     0.000     0.000       96        0       42       25        1       30       18     8.294       33     33.2    2.757   -9.900     1.21    0.000    0.000       26        9     2070  Maize_short_Cahul_6June_NonOptimum_85_MPI.PRM
  Tot(91)        6        6     2071     56.1    621.7   1573.5   685.00      0.0     54.3      1.8      1.7      0.0     85.6       24    182.5    145.4       77     0.000     0.000     0.000     0.000      100        0       42       25        2       23       19    10.089       40     36.8    3.712   -9.900     1.39    0.000    0.000       26        9     2071  Maize_short_Cahul_6June_NonOptimum_85_MPI.PRM
  Tot(92)        6        6     2072     83.2    646.5   1526.0   693.00      0.0     83.1      0.1      0.0      0.0     95.8       22    182.2    147.5       85     0.000     0.000     0.000     0.000      107        0       42       25        4       35       12     9.893       41     40.7    4.026   -9.900     1.45    0.000    0.000       26        9     2072  Maize_short_Cahul_6June_NonOptimum_85_MPI.PRM
  Tot(93)        6        6     2073    157.7    443.7   1278.5   701.00      0.0    154.0      3.7      5.7      0.0     88.0       42    229.5    178.0      100     0.000     0.000     0.000     0.000      107        0       42       25        6        5        0    17.812       74     40.2    7.164   -9.900     2.26    0.000    0.000       26        9     2073  Maize_short_Cahul_6June_NonOptimum_85_MPI.PRM
  Tot(94)        6        6     2074    169.8    483.6   1314.9   709.00      0.0    164.0      5.8      0.0      0.0    102.2       46    244.7    189.6      100     0.000     0.000     0.000     0.000      107        0       42       25        7        4        0    17.046       73     40.0    6.826   -9.900     1.97    0.000    0.000       26        9     2074  Maize_short_Cahul_6June_NonOptimum_85_MPI.PRM
  Tot(95)        6        6     2075    161.0    506.1   1468.1   717.00      0.0    149.0     12.0     29.4      0.0    120.3       51    211.5    167.8       83     0.000     0.000     0.000     0.000      107        0       42       25        3       19       15    13.345       54     40.4    5.385   -9.900     1.62    0.000    0.000       26        9     2075  Maize_short_Cahul_6June_NonOptimum_85_MPI.PRM
  Tot(96)        6        6     2076    164.4    584.8   1588.6   725.00      0.0    150.1     14.3      0.0      0.0     77.1       24    263.4    204.3       98     0.000     0.000     0.000     0.000      107        0       42       25        2       12        1    16.515       68     40.2    6.646   -9.900     1.95    0.000    0.000       26        9     2076  Maize_short_Cahul_6June_NonOptimum_85_MPI.PRM
  Tot(97)        6        6     2077    192.5    510.5   1494.8   733.00      0.0    183.9      8.6      8.1      0.0    114.9       45    221.3    175.0       90     0.000     0.000     0.000     0.000      107        0       42       25        3       16        6    14.964       62     40.6    6.076   -9.900     1.81    0.000    0.000       26        9     2077  Maize_short_Cahul_6June_NonOptimum_85_MPI.PRM
  Tot(98)        6        6     2078    160.4    534.2   1427.8   742.00      0.0    150.8      9.6     12.5      0.0    120.3       47    229.1    179.7       91     0.000     0.000     0.000     0.000      107        0       42       25        7        7       10    14.519       64     40.1    5.817   -9.900     1.66    0.000    0.000       26        9     2078  Maize_short_Cahul_6June_NonOptimum_85_MPI.PRM
  Tot(99)        6        6     2079    107.3    549.7   1377.4   750.00      0.0    102.4      4.9      0.0      0.0     82.2       31    230.6    179.1       88     0.000     0.000     0.000     0.000      107        0       42       25        6        8       11    14.139       61     40.0    5.650   -9.900     1.81    0.000    0.000       26        9     2079  Maize_short_Cahul_6June_NonOptimum_85_MPI.PRM
 Tot(100)        6        6     2080     99.4    583.1   1483.3   758.00      0.0     98.3      1.1      0.0      0.0     94.6       30    197.6    156.8       81     0.000     0.000     0.000     0.000      103        0       42       25        3       22       18    10.963       46     40.2    4.402   -9.900     1.53    0.000    0.000       26        9     2080  Maize_short_Cahul_6June_NonOptimum_85_MPI.PRM
 Tot(101)        6        6     2081    180.2    499.7   1374.7   767.00      0.0    170.1     10.1      4.5      0.0    109.9       46    233.5    182.7       96     0.000     0.000     0.000     0.000      107        0       42       25        7       19        3    15.544       67     40.8    6.344   -9.900     1.85    0.000    0.000       26        9     2081  Maize_short_Cahul_6June_NonOptimum_85_MPI.PRM
 Tot(102)        6        6     2082     62.1    645.3   1634.2   775.00      0.0     61.4      0.7      0.0      0.0     90.5       24    184.1    147.4       78     0.000     0.000     0.000     0.000       99        0       42       25        1       25       19     9.716       40     35.9    3.491   -9.900     1.28    0.000    0.000       26        9     2082  Maize_short_Cahul_6June_NonOptimum_85_MPI.PRM
 Tot(103)        6        6     2083    165.8    524.8   1497.1   784.00      0.0    153.5     12.3     34.4      0.0    100.7       40    213.8    167.9       85     0.000     0.000     0.000     0.000      107        0       42       25        3       22       10    13.436       56     40.7    5.468   -9.900     1.74    0.000    0.000       26        9     2083  Maize_short_Cahul_6June_NonOptimum_85_MPI.PRM
 Tot(104)        6        6     2084    123.9    499.1   1414.9   792.00      0.0    118.8      5.1      7.5      0.0    121.6       51    202.8    159.5       86     0.000     0.000     0.000     0.000      107        0       42       25        5       11       13    13.695       58     40.1    5.495   -9.900     1.69    0.000    0.000       26        9     2084  Maize_short_Cahul_6June_NonOptimum_85_MPI.PRM
 Tot(105)        6        6     2085     90.5    590.0   1508.2   801.00      0.0     89.4      1.1      0.5      0.0    103.1       32    183.3    146.0       79     0.000     0.000     0.000     0.000      107        0       42       25        3       26       18     9.770       40     40.4    3.946   -9.900     1.38    0.000    0.000       26        9     2085  Maize_short_Cahul_6June_NonOptimum_85_MPI.PRM
 Tot(106)        6        6     2086     54.7    682.5   1636.4   810.00      0.0     54.1      0.6      0.8      0.0     88.5       20    171.7    138.3       78     0.000     0.000     0.000     0.000       96        0       42       25        1       30       18     8.689       35     33.1    2.877   -9.900     1.11    0.000    0.000       26        9     2086  Maize_short_Cahul_6June_NonOptimum_85_MPI.PRM
 Tot(107)        6        6     2087    102.8    501.1   1375.0   818.00      0.0     99.1      3.7      5.1      0.0     66.3       26    220.9    174.1       98     0.000     0.000     0.000     0.000      107        0       42       25        6       17        2    15.469       67     40.3    6.235   -9.900     2.17    0.000    0.000       26        9     2087  Maize_short_Cahul_6June_NonOptimum_85_MPI.PRM
 Tot(108)        6        6     2088    182.1    523.2   1451.6   827.00      0.0    165.3     16.8     35.6      0.0    121.6       46    215.1    168.3       90     0.000     0.000     0.000     0.000      107        0       42       25        3       13        8    15.200       64     40.4    6.141   -9.900     1.82    0.000    0.000       26        9     2088  Maize_short_Cahul_6June_NonOptimum_85_MPI.PRM
 Tot(109)        6        6     2089     99.9    497.1   1371.7   836.00      0.0     99.6      0.3      0.1      0.0    104.9       43    193.4    152.9       86     0.000     0.000     0.000     0.000      107        0       42       25        8       21       11    12.337       55     40.6    5.010   -9.900     1.68    0.000    0.000       26        9     2089  Maize_short_Cahul_6June_NonOptimum_85_MPI.PRM
 Tot(110)        6        6     2090     22.8    639.2   1558.0   845.00      0.0     22.8      0.0      0.0      0.0     59.9       14    170.6    137.9       82     0.000     0.000     0.000     0.000      102        0       42       25        4       32       16     9.162       39     39.4    3.610   -9.900     1.57    0.000    0.000       26        9     2090  Maize_short_Cahul_6June_NonOptimum_85_MPI.PRM
 Tot(111)        6        6     2091     96.4    594.0   1553.6   854.00      0.0     96.4      0.0      0.0      0.0     86.1       24    194.9    156.9       84     0.000     0.000     0.000     0.000      107        0       42       25        3       32       12    11.376       48     40.7    4.626   -9.900     1.65    0.000    0.000       26        9     2091  Maize_short_Cahul_6June_NonOptimum_85_MPI.PRM
 Tot(112)        6        6     2092     59.0    701.0   1611.6   863.00      0.0     58.9      0.1      0.0      0.0     91.7       20    163.8    132.9       78     0.000     0.000     0.000     0.000       90        0       42       25        0       35       18     6.976       30     27.1    1.892   -9.900     0.76    0.000    0.000       26        9     2092  Maize_short_Cahul_6June_NonOptimum_85_MPI.PRM
 Tot(113)        6        6     2093    106.2    568.1   1498.5   872.00      0.0    104.2      2.0      0.0      0.0     98.7       38    223.4    174.4       81     0.000     0.000     0.000     0.000      107        0       42       25        2       13       16    13.079       55     40.1    5.248   -9.900     1.63    0.000    0.000       26        9     2093  Maize_short_Cahul_6June_NonOptimum_85_MPI.PRM
 Tot(114)        6        6     2094    109.0    559.8   1526.9   881.00      0.0     98.9     10.1      0.0      0.0     71.7       24    224.9    179.0       93     0.000     0.000     0.000     0.000      107        0       42       25        2       30        5    13.978       58     40.8    5.709   -9.900     1.92    0.000    0.000       26        9     2094  Maize_short_Cahul_6June_NonOptimum_85_MPI.PRM
 Tot(115)        6        6     2095    136.1    645.6   1603.0   890.00      0.0    111.6     24.5      0.0      0.0     80.3       19    206.6    165.9       93     0.000     0.000     0.000     0.000      107        0       42       25        5       29        5    12.398       55     40.8    5.063   -9.900     1.76    0.000    0.000       26        9     2095  Maize_short_Cahul_6June_NonOptimum_85_MPI.PRM
 Tot(116)        6        6     2096     65.2    717.7   1767.2   899.00      0.0     65.1      0.1      0.0      0.0     93.9       21    173.0    139.6       76     0.000     0.000     0.000     0.000       92        0       42       25        0       31       18     7.427       31     26.1    1.938   -9.900     0.73    0.000    0.000       26        9     2096  Maize_short_Cahul_6June_NonOptimum_85_MPI.PRM
 Tot(117)        6        6     2097    277.7    481.4   1453.9   908.00      0.0    243.4     34.3      0.0      0.0    106.9       43    213.6    165.3      100     0.000     0.000     0.000     0.000      107        0       42       25        6        7        0    16.396       73     40.1    6.577   -9.900     2.05    0.000    0.000       26        9     2097  Maize_short_Cahul_6June_NonOptimum_85_MPI.PRM
 Tot(118)        6        6     2098    181.1    483.8   1415.3   917.00      0.0    151.7     29.4     17.9      0.0    108.1       46    223.1    174.4       96     0.000     0.000     0.000     0.000      107        0       42       25        3       11        3    16.438       70     40.3    6.631   -9.900     2.00    0.000    0.000       26        9     2098  Maize_short_Cahul_6June_NonOptimum_85_MPI.PRM
 Tot(119)        6        6     2099    126.4    612.8   1543.3   927.00      0.0    119.2      7.2      0.0      0.0     91.3       24    199.0    161.6       90     0.000     0.000     0.000     0.000      107        0       42       25        3       34        6    11.641       50     40.8    4.751   -9.900     1.64    0.000    0.000       26        9     2099  Maize_short_Cahul_6June_NonOptimum_85_MPI.PRM
