AquaCrop 7.0 (August 2022) - Output created on (date) : 23-11-2022   at (time) : 11:51:39

    RunNr     Day1   Month1    Year1     Rain      ETo       GD     CO2      Irri   Infilt   Runoff    Drain   Upflow        E     E/Ex       Tr      TrW   Tr/Trx    SaltIn   SaltOut    SaltUp  SaltProf     Cycle   SaltStr  FertStr  WeedStr  TempStr   ExpStr   StoStr  BioMass  Brelative   HI    Y(dry)  Y(fresh)    WPet      Bin     Bout     DayN   MonthN    YearN
                                           mm       mm  degC.day    ppm        mm       mm       mm       mm       mm       mm        %       mm       mm        %    ton/ha    ton/ha    ton/ha    ton/ha      days       %        %        %        %        %        %    ton/ha        %       %    ton/ha   ton/ha    kg/m3   ton/ha   ton/ha
   Tot(1)       22        5     1981    112.7    489.0   1247.8   340.11      0.0    112.6      0.1      0.0      0.0     77.0       34    238.7    184.8       91     0.000     0.000     0.000     0.000      107        0       42       25       11        7        7    13.569       65     40.3    5.462   -9.900     1.73    0.000    0.000       11        9     1981  Maize_short_Chisinau_22May_NonOptimum_26_MPI.PRM
   Tot(2)       22        5     1982    204.3    456.0   1247.6   341.22      0.0    204.0      0.3      0.0      0.0    113.7       55    257.4    198.1      100     0.000     0.000     0.000     0.000      107        0       42       25        9        2        0    16.379       75     40.0    6.557   -9.900     1.77    0.000    0.000       11        9     1982  Maize_short_Chisinau_22May_NonOptimum_26_MPI.PRM
   Tot(3)       22        5     1983    263.2    457.8   1241.5   342.84      0.0    246.8     16.4     28.6      0.0    125.5       63    258.5    200.2      100     0.000     0.000     0.000     0.000      107        0       42       25       10        3        0    15.990       75     40.1    6.413   -9.900     1.67    0.000    0.000       11        9     1983  Maize_short_Chisinau_22May_NonOptimum_26_MPI.PRM
   Tot(4)       22        5     1984    214.8    437.7   1110.3   344.40      0.0    211.4      3.4      5.3      0.0    144.1       77    242.9    188.9      100     0.000     0.000     0.000     0.000      107        0       42       25       15        1        0    15.604       75     40.0    6.248   -9.900     1.61    0.000    0.000       11        9     1984  Maize_short_Chisinau_22May_NonOptimum_26_MPI.PRM
   Tot(5)       22        5     1985    293.3    457.2   1166.1   345.87      0.0    263.7     29.6     63.9      0.0    122.0       66    263.0    203.3       97     0.000     0.000     0.000     0.000      107        0       42       25       15        2        2    15.134       73     40.1    6.067   -9.900     1.58    0.000    0.000       11        9     1985  Maize_short_Chisinau_22May_NonOptimum_26_MPI.PRM
   Tot(6)       22        5     1986    182.0    520.8   1291.5   347.19      0.0    181.3      0.7      0.0      0.0    116.4       50    270.7    210.0       93     0.000     0.000     0.000     0.000      107        0       42       25        9        5        6    14.711       69     40.1    5.898   -9.900     1.52    0.000    0.000       11        9     1986  Maize_short_Chisinau_22May_NonOptimum_26_MPI.PRM
   Tot(7)       22        5     1987    250.7    477.0   1168.0   348.98      0.0    236.4     14.3     17.7      0.0    107.9       54    270.4    209.4      100     0.000     0.000     0.000     0.000      107        0       42       25       14        5        0    15.238       75     40.3    6.139   -9.900     1.62    0.000    0.000       11        9     1987  Maize_short_Chisinau_22May_NonOptimum_26_MPI.PRM
   Tot(8)       22        5     1988    311.4    459.2   1267.4   351.45      0.0    269.3     42.1     29.3      0.0    109.3       61    276.0    215.1       96     0.000     0.000     0.000     0.000      107        0       42       25       10        3        3    15.422       72     40.1    6.188   -9.900     1.61    0.000    0.000       11        9     1988  Maize_short_Chisinau_22May_NonOptimum_26_MPI.PRM
   Tot(9)       22        5     1989    328.6    451.3   1181.5   352.89      0.0    298.7     29.9      2.2      0.0    122.8       64    266.6    207.0      100     0.000     0.000     0.000     0.000      107        0       42       25       12        6        0    15.980       74     40.2    6.426   -9.900     1.65    0.000    0.000       11        9     1989  Maize_short_Chisinau_22May_NonOptimum_26_MPI.PRM
  Tot(10)       22        5     1990    157.0    493.1   1149.4   354.16      0.0    152.3      4.7     14.4      0.0    127.9       58    226.3    177.9       85     0.000     0.000     0.000     0.000      107        0       42       25       15       11       15    12.373       58     40.0    4.945   -9.900     1.40    0.000    0.000       11        9     1990  Maize_short_Chisinau_22May_NonOptimum_26_MPI.PRM
  Tot(11)       22        5     1991    405.5    420.3   1208.7   355.48      0.0    355.8     49.7     77.0      0.0    124.2       75    257.2    197.9      100     0.000     0.000     0.000     0.000      107        0       42       25       12        1        0    16.406       75     40.0    6.569   -9.900     1.72    0.000    0.000       11        9     1991  Maize_short_Chisinau_22May_NonOptimum_26_MPI.PRM
  Tot(12)       22        5     1992    188.3    518.5   1278.0   356.27      0.0    184.1      4.2      9.8      0.0    142.9       69    245.6    192.9       80     0.000     0.000     0.000     0.000      107        0       42       25       10       10       15    12.174       55     39.8    4.839   -9.900     1.25    0.000    0.000       11        9     1992  Maize_short_Chisinau_22May_NonOptimum_26_MPI.PRM
  Tot(13)       22        5     1993    166.0    491.7   1142.1   356.95      0.0    165.4      0.6      0.6      0.0    100.5       48    257.7    198.4       96     0.000     0.000     0.000     0.000      107        0       42       25       16        3        3    14.101       71     40.1    5.653   -9.900     1.58    0.000    0.000       11        9     1993  Maize_short_Chisinau_22May_NonOptimum_26_MPI.PRM
  Tot(14)       22        5     1994    259.6    519.0   1314.2   358.63      0.0    220.5     39.1     11.8      0.0    105.0       44    265.8    208.4       90     0.000     0.000     0.000     0.000      107        0       42       25       10       12        6    14.401       63     40.5    5.825   -9.900     1.57    0.000    0.000       11        9     1994  Maize_short_Chisinau_22May_NonOptimum_26_MPI.PRM
  Tot(15)       22        5     1995    240.9    497.5   1341.7   360.62      0.0    225.7     15.2      1.4      0.0     92.6       40    269.9    210.0       96     0.000     0.000     0.000     0.000      107        0       42       25        5        7        2    15.683       70     40.2    6.306   -9.900     1.74    0.000    0.000       11        9     1995  Maize_short_Chisinau_22May_NonOptimum_26_MPI.PRM
  Tot(16)       22        5     1996    178.3    510.0   1221.6   362.37      0.0    174.6      3.7      2.9      0.0     99.7       37    225.6    178.8       92     0.000     0.000     0.000     0.000      107        0       42       25       12       18        5    13.184       63     40.6    5.346   -9.900     1.64    0.000    0.000       11        9     1996  Maize_short_Chisinau_22May_NonOptimum_26_MPI.PRM
  Tot(17)       22        5     1997    330.1    417.1   1153.3   363.47      0.0    310.1     20.0      0.0      0.0    110.0       60    233.5    180.9      100     0.000     0.000     0.000     0.000      107        0       42       25       13        0        0    16.205       75     40.0    6.482   -9.900     1.89    0.000    0.000       11        9     1997  Maize_short_Chisinau_22May_NonOptimum_26_MPI.PRM
  Tot(18)       22        5     1998    213.1    479.8   1242.4   366.50      0.0    207.8      5.3      0.7      0.0    115.1       59    266.4    205.5       95     0.000     0.000     0.000     0.000      107        0       42       25       13        2        3    14.606       71     40.1    5.854   -9.900     1.53    0.000    0.000       11        9     1998  Maize_short_Chisinau_22May_NonOptimum_26_MPI.PRM
  Tot(19)       22        5     1999    155.4    516.5   1415.8   368.14      0.0    153.9      1.5      0.0      0.0    105.1       43    252.3    197.1       88     0.000     0.000     0.000     0.000      107        0       42       25        3       15        9    14.276       62     40.5    5.782   -9.900     1.62    0.000    0.000       11        9     1999  Maize_short_Chisinau_22May_NonOptimum_26_MPI.PRM
  Tot(20)       22        5     2000    200.0    540.4   1259.7   369.41      0.0    193.4      6.6      0.0      0.0     72.3       28    279.5    218.2       97     0.000     0.000     0.000     0.000      107        0       42       25       12        8        1    15.054       70     40.1    6.033   -9.900     1.72    0.000    0.000       11        9     2000  Maize_short_Chisinau_22May_NonOptimum_26_MPI.PRM
  Tot(21)       22        5     2001    281.1    504.5   1316.2   371.07      0.0    245.1     36.0     26.0      0.0    132.2       60    241.5    189.5       84     0.000     0.000     0.000     0.000      107        0       42       25        9        8       12    12.731       56     39.8    5.068   -9.900     1.36    0.000    0.000       11        9     2001  Maize_short_Chisinau_22May_NonOptimum_26_MPI.PRM
  Tot(22)       22        5     2002    297.2    513.7   1401.0   373.16      0.0    270.0     27.2      3.8      0.0    111.4       47    297.6    232.6      100     0.000     0.000     0.000     0.000      107        0       42       25        5       10        0    16.950       72     40.0    6.784   -9.900     1.66    0.000    0.000       11        9     2002  Maize_short_Chisinau_22May_NonOptimum_26_MPI.PRM
  Tot(23)       22        5     2003    199.3    543.0   1313.0   375.80      0.0    197.8      1.5      0.0      0.0     98.0       37    284.3    220.5       99     0.000     0.000     0.000     0.000      107        0       42       25        8        4        1    15.842       72     40.0    6.343   -9.900     1.66    0.000    0.000       11        9     2003  Maize_short_Chisinau_22May_NonOptimum_26_MPI.PRM
  Tot(24)       22        5     2004    212.6    500.0   1203.6   377.49      0.0    201.0     11.6      4.7      0.0    100.0       44    275.9    215.6      100     0.000     0.000     0.000     0.000      107        0       42       25       11        5        0    16.207       74     40.1    6.504   -9.900     1.73    0.000    0.000       11        9     2004  Maize_short_Chisinau_22May_NonOptimum_26_MPI.PRM
  Tot(25)       22        5     2005    280.2    489.9   1320.0   379.80      0.0    268.2     12.0      8.5      0.0    136.2       63    286.2    220.0      100     0.000     0.000     0.000     0.000      107        0       42       25        7        4        0    17.321       75     40.3    6.975   -9.900     1.65    0.000    0.000       11        9     2005  Maize_short_Chisinau_22May_NonOptimum_26_MPI.PRM
  Tot(26)       22        5     2006    278.5    526.4   1284.9   381.90      0.0    269.3      9.2     16.0      0.0    136.6       60    298.8    233.7       97     0.000     0.000     0.000     0.000      107        0       42       25       10       10        3    15.974       71     40.5    6.474   -9.900     1.49    0.000    0.000       11        9     2006  Maize_short_Chisinau_22May_NonOptimum_26_MPI.PRM
  Tot(27)       22        5     2007    161.9    617.8   1470.3   383.77      0.0    161.4      0.5      0.0      0.0    116.1       35    245.5    195.4       83     0.000     0.000     0.000     0.000      107        0       42       25        4       26       12    11.921       52     40.6    4.839   -9.900     1.34    0.000    0.000       11        9     2007  Maize_short_Chisinau_22May_NonOptimum_26_MPI.PRM
  Tot(28)       22        5     2008    182.6    561.4   1363.1   385.59      0.0    176.9      5.7      0.0      0.0    116.7       46    277.8    217.6       87     0.000     0.000     0.000     0.000      107        0       42       25        5        9       11    14.297       61     39.7    5.677   -9.900     1.44    0.000    0.000       11        9     2008  Maize_short_Chisinau_22May_NonOptimum_26_MPI.PRM
  Tot(29)       22        5     2009    196.0    575.6   1374.3   387.37      0.0    194.3      1.7      0.0      0.0    110.1       41    287.8    222.7       89     0.000     0.000     0.000     0.000      107        0       42       25        5       10        9    14.566       62     40.2    5.853   -9.900     1.47    0.000    0.000       11        9     2009  Maize_short_Chisinau_22May_NonOptimum_26_MPI.PRM
  Tot(30)       22        5     2010    257.3    510.9   1415.8   389.85      0.0    240.3     17.0     19.1      0.0    119.7       54    279.4    217.9       93     0.000     0.000     0.000     0.000      107        0       42       25        7        2        4    15.516       69     40.0    6.199   -9.900     1.55    0.000    0.000       11        9     2010  Maize_short_Chisinau_22May_NonOptimum_26_MPI.PRM
  Tot(31)       22        5     2011    216.4    549.6   1380.9   391.63      0.0    201.6     14.8     17.5      0.0    132.6       53    266.5    207.5       86     0.000     0.000     0.000     0.000      107        0       42       25        5        6       12    14.154       61     39.8    5.628   -9.900     1.41    0.000    0.000       11        9     2011  Maize_short_Chisinau_22May_NonOptimum_26_MPI.PRM
  Tot(32)       22        5     2012    177.6    615.9   1446.5   393.82      0.0    168.8      8.8     12.1      0.0    107.7       37    267.2    210.4       81     0.000     0.000     0.000     0.000      107        0       42       25        4       16       16    12.383       53     40.1    4.966   -9.900     1.32    0.000    0.000       11        9     2012  Maize_short_Chisinau_22May_NonOptimum_26_MPI.PRM
  Tot(33)       22        5     2013    299.8    518.6   1351.6   396.48      0.0    269.2     30.6     27.2      0.0    140.8       64    290.2    224.6       94     0.000     0.000     0.000     0.000      107        0       42       25        6        5        4    16.099       70     40.2    6.475   -9.900     1.50    0.000    0.000       11        9     2013  Maize_short_Chisinau_22May_NonOptimum_26_MPI.PRM
  Tot(34)       22        5     2014    198.3    560.2   1404.9   398.55      0.0    195.8      2.5      1.7      0.0    113.0       48    296.0    230.5       88     0.000     0.000     0.000     0.000      107        0       42       25        5        6       10    15.018       63     39.9    5.993   -9.900     1.47    0.000    0.000       11        9     2014  Maize_short_Chisinau_22May_NonOptimum_26_MPI.PRM
  Tot(35)       22        5     2015    123.3    607.4   1433.1   401.00      0.0    122.9      0.4      0.0      0.0    109.3       35    226.7    179.2       79     0.000     0.000     0.000     0.000      104        0       42       25        5       18       19    10.841       46     40.0    4.334   -9.900     1.29    0.000    0.000       11        9     2015  Maize_short_Chisinau_22May_NonOptimum_26_MPI.PRM
  Tot(36)       22        5     2016    224.9    558.8   1444.3   403.00      0.0    206.2     18.7     39.9      0.0    145.6       57    239.5    188.1       80     0.000     0.000     0.000     0.000      107        0       42       25        4       17       19    11.868       50     40.0    4.742   -9.900     1.23    0.000    0.000       11        9     2016  Maize_short_Chisinau_22May_NonOptimum_26_MPI.PRM
  Tot(37)       22        5     2017    256.1    554.9   1388.6   405.00      0.0    243.1     13.0      9.7      0.0    125.5       53    314.6    242.9       96     0.000     0.000     0.000     0.000      107        0       42       25        5        4        4    16.400       70     40.1    6.570   -9.900     1.49    0.000    0.000       11        9     2017  Maize_short_Chisinau_22May_NonOptimum_26_MPI.PRM
  Tot(38)       22        5     2018    285.1    545.5   1487.3   408.00      0.0    268.7     16.4     20.6      0.0    120.4       48    304.1    236.0       96     0.000     0.000     0.000     0.000      107        0       42       25        3        2        3    16.989       71     39.9    6.787   -9.900     1.60    0.000    0.000       11        9     2018  Maize_short_Chisinau_22May_NonOptimum_26_MPI.PRM
  Tot(39)       22        5     2019    214.6    570.8   1477.1   410.00      0.0    207.5      7.1     13.9      0.0    141.2       55    273.3    213.6       85     0.000     0.000     0.000     0.000      107        0       42       25        2       11       12    14.286       60     40.0    5.716   -9.900     1.38    0.000    0.000       11        9     2019  Maize_short_Chisinau_22May_NonOptimum_26_MPI.PRM
  Tot(40)       22        5     2020    250.9    441.3   1107.4   412.00      0.0    225.6     25.3     20.3      0.0    113.6       61    238.9    185.3       98     0.000     0.000     0.000     0.000      107        0       42       25       18        8        1    14.570       73     40.5    5.904   -9.900     1.67    0.000    0.000       11        9     2020  Maize_short_Chisinau_22May_NonOptimum_26_MPI.PRM
  Tot(41)       22        5     2021    173.6    466.7   1120.8   414.00      0.0    171.4      2.2      0.0      0.0     75.0       37    263.1    203.5      100     0.000     0.000     0.000     0.000      107        0       42       25       16        6        0    16.477       74     40.2    6.626   -9.900     1.96    0.000    0.000       11        9     2021  Maize_short_Chisinau_22May_NonOptimum_26_MPI.PRM
  Tot(42)       22        5     2022    201.8    453.5   1097.4   417.00      0.0    193.9      7.9     22.7      0.0    120.3       73    247.8    193.0       90     0.000     0.000     0.000     0.000      107        0       42       25       19        9        6    14.053       66     40.5    5.695   -9.900     1.55    0.000    0.000       11        9     2022  Maize_short_Chisinau_22May_NonOptimum_26_MPI.PRM
  Tot(43)       22        5     2023    137.8    585.5   1345.2   419.00      0.0    137.2      0.6      0.0      0.0    117.7       40    236.1    187.4       83     0.000     0.000     0.000     0.000      107        0       42       25        7       21       15    12.233       54     40.4    4.946   -9.900     1.40    0.000    0.000       11        9     2023  Maize_short_Chisinau_22May_NonOptimum_26_MPI.PRM
  Tot(44)       22        5     2024    155.8    495.8   1170.2   421.00      0.0    155.0      0.8      0.0      0.0    117.2       54    245.9    190.6       89     0.000     0.000     0.000     0.000      107        0       42       25       14        8        8    14.191       65     40.3    5.721   -9.900     1.58    0.000    0.000       11        9     2024  Maize_short_Chisinau_22May_NonOptimum_26_MPI.PRM
  Tot(45)       22        5     2025    258.1    486.2   1211.9   423.00      0.0    242.2     15.9     28.3      0.0     88.7       38    258.7    202.5      100     0.000     0.000     0.000     0.000      107        0       42       25       11        7        0    16.239       73     40.1    6.514   -9.900     1.88    0.000    0.000       11        9     2025  Maize_short_Chisinau_22May_NonOptimum_26_MPI.PRM
  Tot(46)       22        5     2026    123.5    537.6   1194.2   424.00      0.0    123.2      0.3      2.0      0.0     90.9       37    238.8    185.4       85     0.000     0.000     0.000     0.000      107        0       42       25       12       10       12    13.086       59     39.9    5.215   -9.900     1.58    0.000    0.000       11        9     2026  Maize_short_Chisinau_22May_NonOptimum_26_MPI.PRM
  Tot(47)       22        5     2027    178.2    434.3   1101.2   426.00      0.0    175.8      2.4      2.1      0.0     94.0       53    251.1    194.3      100     0.000     0.000     0.000     0.000      107        0       42       25       15        2        0    16.183       74     40.0    6.480   -9.900     1.88    0.000    0.000       11        9     2027  Maize_short_Chisinau_22May_NonOptimum_26_MPI.PRM
  Tot(48)       22        5     2028    309.1    406.1    996.7   428.00      0.0    285.6     23.5     50.1      0.0    108.0       61    210.1    163.1      100     0.000     0.000     0.000     0.000      107        0       42       25       22        0        0    14.980       75     40.0    5.992   -9.900     1.88    0.000    0.000       11        9     2028  Maize_short_Chisinau_22May_NonOptimum_26_MPI.PRM
  Tot(49)       22        5     2029    170.6    433.4   1073.7   429.00      0.0    163.0      7.6     17.2      0.0    102.8       58    235.9    182.1       96     0.000     0.000     0.000     0.000      107        0       42       25       20        2        3    14.900       72     40.1    5.975   -9.900     1.76    0.000    0.000       11        9     2029  Maize_short_Chisinau_22May_NonOptimum_26_MPI.PRM
  Tot(50)       22        5     2030    169.5    525.9   1214.0   431.00      0.0    165.3      4.2     15.0      0.0    120.2       55    233.4    183.0       81     0.000     0.000     0.000     0.000      105        0       42       25       14        9       19    11.744       52     39.3    4.620   -9.900     1.31    0.000    0.000       11        9     2030  Maize_short_Chisinau_22May_NonOptimum_26_MPI.PRM
  Tot(51)       22        5     2031    205.0    466.8   1185.4   432.00      0.0    201.6      3.4      6.8      0.0    116.4       52    241.2    187.5      100     0.000     0.000     0.000     0.000      107        0       42       25       14        4        0    15.910       74     40.1    6.376   -9.900     1.78    0.000    0.000       11        9     2031  Maize_short_Chisinau_22May_NonOptimum_26_MPI.PRM
  Tot(52)       22        5     2032    228.5    476.7   1112.3   433.00      0.0    190.4     38.1     24.0      0.0    115.7       61    255.6    197.3       94     0.000     0.000     0.000     0.000      107        0       42       25       16        3        5    15.151       71     40.1    6.079   -9.900     1.64    0.000    0.000       11        9     2032  Maize_short_Chisinau_22May_NonOptimum_26_MPI.PRM
  Tot(53)       22        5     2033    187.6    461.9   1105.9   435.00      0.0    183.7      3.9      0.0      0.0     74.1       36    241.4    187.3      100     0.000     0.000     0.000     0.000      107        0       42       25       17        2        0    15.585       74     40.0    6.236   -9.900     1.98    0.000    0.000       11        9     2033  Maize_short_Chisinau_22May_NonOptimum_26_MPI.PRM
  Tot(54)       22        5     2034    201.7    511.8   1236.7   436.00      0.0    199.1      2.6      0.0      0.0    112.3       47    252.3    197.3       92     0.000     0.000     0.000     0.000      107        0       42       25       13       14        6    14.613       64     40.4    5.908   -9.900     1.62    0.000    0.000       11        9     2034  Maize_short_Chisinau_22May_NonOptimum_26_MPI.PRM
  Tot(55)       22        5     2035    259.2    499.6   1162.3   437.00      0.0    216.1     43.1      0.0      0.0    107.3       52    253.4    197.8       89     0.000     0.000     0.000     0.000      107        0       42       25       16        6        7    14.157       66     40.0    5.665   -9.900     1.57    0.000    0.000       11        9     2035  Maize_short_Chisinau_22May_NonOptimum_26_MPI.PRM
  Tot(56)       22        5     2036    226.4    468.5   1186.1   438.00      0.0    219.7      6.7     13.6      0.0    108.5       52    260.4    200.6      100     0.000     0.000     0.000     0.000      107        0       42       25       10        3        0    16.746       75     40.1    6.714   -9.900     1.82    0.000    0.000       11        9     2036  Maize_short_Chisinau_22May_NonOptimum_26_MPI.PRM
  Tot(57)       22        5     2037    249.3    440.4   1076.9   438.00      0.0    225.4     23.9     16.2      0.0     84.6       41    231.2    179.6      100     0.000     0.000     0.000     0.000      107        0       42       25       18        4        0    16.067       74     40.1    6.444   -9.900     2.04    0.000    0.000       11        9     2037  Maize_short_Chisinau_22May_NonOptimum_26_MPI.PRM
  Tot(58)       22        5     2038    148.1    455.4   1157.4   439.00      0.0    146.3      1.8      0.0      0.0     61.7       32    255.0    199.2      100     0.000     0.000     0.000     0.000      107        0       42       25       15        5        0    16.201       74     40.1    6.491   -9.900     2.05    0.000    0.000       11        9     2038  Maize_short_Chisinau_22May_NonOptimum_26_MPI.PRM
  Tot(59)       22        5     2039    165.5    553.0   1178.1   440.00      0.0    155.1     10.4      0.0      0.0     87.0       32    240.7    190.1       89     0.000     0.000     0.000     0.000      107        0       42       25       13       27        6    12.758       58     40.8    5.205   -9.900     1.59    0.000    0.000       11        9     2039  Maize_short_Chisinau_22May_NonOptimum_26_MPI.PRM
  Tot(60)       22        5     2040    146.9    512.1   1176.5   440.00      0.0    146.8      0.1      0.1      0.0     93.4       42    260.2    202.4       91     0.000     0.000     0.000     0.000      107        0       42       25       14        5        7    15.006       66     40.0    6.003   -9.900     1.70    0.000    0.000       11        9     2040  Maize_short_Chisinau_22May_NonOptimum_26_MPI.PRM
  Tot(61)       22        5     2041    154.0    584.9   1236.2   441.00      0.0    149.9      4.1      1.1      0.0    127.8       43    207.4    164.6       75     0.000     0.000     0.000     0.000      107        0       42       25       11       22       17     9.926       43     40.0    3.969   -9.900     1.18    0.000    0.000       11        9     2041  Maize_short_Chisinau_22May_NonOptimum_26_MPI.PRM
  Tot(62)       22        5     2042    280.4    448.1   1144.5   441.00      0.0    252.7     27.7      2.9      0.0    105.4       50    232.3    178.9      100     0.000     0.000     0.000     0.000      107        0       42       25       14        4        0    16.119       75     40.1    6.465   -9.900     1.91    0.000    0.000       11        9     2042  Maize_short_Chisinau_22May_NonOptimum_26_MPI.PRM
  Tot(63)       22        5     2043    130.6    472.3   1094.2   441.00      0.0    126.9      3.7     13.5      0.0    104.3       52    222.4    174.0       86     0.000     0.000     0.000     0.000      107        0       42       25       18        5       12    13.298       61     39.9    5.307   -9.900     1.62    0.000    0.000       11        9     2043  Maize_short_Chisinau_22May_NonOptimum_26_MPI.PRM
  Tot(64)       22        5     2044    280.7    420.4   1066.4   442.00      0.0    269.1     11.6      3.3      0.0    105.8       54    211.8    164.9      100     0.000     0.000     0.000     0.000      107        0       42       25       21        4        0    15.016       75     40.1    6.016   -9.900     1.89    0.000    0.000       11        9     2044  Maize_short_Chisinau_22May_NonOptimum_26_MPI.PRM
  Tot(65)       22        5     2045    307.3    422.6   1132.0   442.00      0.0    275.0     32.3     69.1      0.0     90.9       53    242.2    186.3      100     0.000     0.000     0.000     0.000      107        0       42       25       15        1        0    16.541       75     40.0    6.618   -9.900     1.99    0.000    0.000       11        9     2045  Maize_short_Chisinau_22May_NonOptimum_26_MPI.PRM
  Tot(66)       22        5     2046    116.2    453.3   1169.2   442.00      0.0    116.2      0.0      0.0      0.0     80.0       39    238.1    187.0       96     0.000     0.000     0.000     0.000      107        0       42       25       11       11        4    15.759       70     40.5    6.385   -9.900     2.01    0.000    0.000       11        9     2046  Maize_short_Chisinau_22May_NonOptimum_26_MPI.PRM
  Tot(67)       22        5     2047    301.8    439.7   1158.9   442.00      0.0    265.9     35.9     27.9      0.0     95.3       56    268.1    205.5      100     0.000     0.000     0.000     0.000      107        0       42       25       13        1        0    17.110       75     40.0    6.847   -9.900     1.88    0.000    0.000       11        9     2047  Maize_short_Chisinau_22May_NonOptimum_26_MPI.PRM
  Tot(68)       22        5     2048    287.0    437.2   1151.8   442.00      0.0    247.6     39.4     49.9      0.0     99.8       54    245.9    190.8      100     0.000     0.000     0.000     0.000      107        0       42       25       13        4        0    16.720       75     40.2    6.720   -9.900     1.94    0.000    0.000       11        9     2048  Maize_short_Chisinau_22May_NonOptimum_26_MPI.PRM
  Tot(69)       22        5     2049    135.6    542.4   1186.9   443.00      0.0    127.8      7.8      9.6      0.0     91.1       37    231.3    182.1       84     0.000     0.000     0.000     0.000      107        0       42       25       12       10       16    11.798       54     39.9    4.710   -9.900     1.46    0.000    0.000       11        9     2049  Maize_short_Chisinau_22May_NonOptimum_26_MPI.PRM
  Tot(70)       22        5     2050    289.0    449.4   1084.0   443.00      0.0    264.2     24.8     38.6      0.0     97.7       48    230.3    178.2      100     0.000     0.000     0.000     0.000      107        0       42       25       19        2        0    14.856       75     40.1    5.957   -9.900     1.82    0.000    0.000       11        9     2050  Maize_short_Chisinau_22May_NonOptimum_26_MPI.PRM
  Tot(71)       22        5     2051    168.1    472.0   1119.7   443.00      0.0    162.2      5.9      9.8      0.0    108.1       55    249.0    192.8       92     0.000     0.000     0.000     0.000      107        0       42       25       15        7        7    14.997       67     40.1    6.020   -9.900     1.69    0.000    0.000       11        9     2051  Maize_short_Chisinau_22May_NonOptimum_26_MPI.PRM
  Tot(72)       22        5     2052    216.5    468.6   1173.7   443.00      0.0    207.4      9.1      0.0      0.0     97.4       39    218.3    171.3      100     0.000     0.000     0.000     0.000      107        0       42       25       14       16        0    15.113       72     40.6    6.132   -9.900     1.94    0.000    0.000       11        9     2052  Maize_short_Chisinau_22May_NonOptimum_26_MPI.PRM
  Tot(73)       22        5     2053    142.5    468.7   1104.6   443.00      0.0    140.4      2.1     14.5      0.0     73.5       40    252.1    195.7       93     0.000     0.000     0.000     0.000      107        0       42       25       17        3        5    15.086       70     39.9    6.027   -9.900     1.85    0.000    0.000       11        9     2053  Maize_short_Chisinau_22May_NonOptimum_26_MPI.PRM
  Tot(74)       22        5     2054    179.9    498.5   1159.8   443.00      0.0    163.9     16.0      0.0      0.0     83.3       39    275.2    213.4       98     0.000     0.000     0.000     0.000      107        0       42       25       13        5        2    16.324       72     40.1    6.545   -9.900     1.83    0.000    0.000       11        9     2054  Maize_short_Chisinau_22May_NonOptimum_26_MPI.PRM
  Tot(75)       22        5     2055    151.0    521.3   1195.8   443.00      0.0    150.5      0.5      0.4      0.0    112.9       49    247.8    194.1       87     0.000     0.000     0.000     0.000      107        0       42       25       16       14       12    13.661       61     40.4    5.516   -9.900     1.53    0.000    0.000       11        9     2055  Maize_short_Chisinau_22May_NonOptimum_26_MPI.PRM
  Tot(76)       22        5     2056    109.4    520.5   1217.0   442.00      0.0    107.7      1.7      5.3      0.0    105.7       45    215.5    169.8       80     0.000     0.000     0.000     0.000      106        0       42       25       10       18       18    11.812       50     39.9    4.708   -9.900     1.47    0.000    0.000       11        9     2056  Maize_short_Chisinau_22May_NonOptimum_26_MPI.PRM
  Tot(77)       22        5     2057    135.4    506.9   1220.3   442.00      0.0    134.3      1.1      0.0      0.0     94.1       42    236.4    182.6       86     0.000     0.000     0.000     0.000      107        0       42       25       11        9        8    13.965       63     40.0    5.583   -9.900     1.69    0.000    0.000       11        9     2057  Maize_short_Chisinau_22May_NonOptimum_26_MPI.PRM
  Tot(78)       22        5     2058    183.8    565.2   1273.5   442.00      0.0    176.9      6.9      0.0      0.0     88.3       28    242.6    192.6       94     0.000     0.000     0.000     0.000      107        0       42       25       11       15        4    13.775       64     40.3    5.555   -9.900     1.68    0.000    0.000       11        9     2058  Maize_short_Chisinau_22May_NonOptimum_26_MPI.PRM
  Tot(79)       22        5     2059    246.7    479.6   1215.1   442.00      0.0    181.1     65.6      2.5      0.0     67.8       28    231.2    180.4       95     0.000     0.000     0.000     0.000      107        0       42       25       13       13        2    14.634       68     40.6    5.941   -9.900     1.99    0.000    0.000       11        9     2059  Maize_short_Chisinau_22May_NonOptimum_26_MPI.PRM
  Tot(80)       22        5     2060    103.6    496.1   1245.0   442.00      0.0     99.3      4.3     14.3      0.0     88.1       42    210.7    164.7       79     0.000     0.000     0.000     0.000      107        0       42       25       11       11       18    11.688       50     40.0    4.675   -9.900     1.56    0.000    0.000       11        9     2060  Maize_short_Chisinau_22May_NonOptimum_26_MPI.PRM
  Tot(81)       22        5     2061    136.1    529.1   1272.4   441.00      0.0    133.4      2.7      0.0      0.0     81.5       32    263.4    206.4       91     0.000     0.000     0.000     0.000      107        0       42       25        8       14        8    15.129       64     40.1    6.072   -9.900     1.76    0.000    0.000       11        9     2061  Maize_short_Chisinau_22May_NonOptimum_26_MPI.PRM
  Tot(82)       22        5     2062    165.9    403.7    979.8   441.00      0.0    164.3      1.6      0.0      0.0     87.8       54    211.9    164.4      100     0.000     0.000     0.000     0.000      107        0       42       25       22        1        0    14.834       75     40.0    5.936   -9.900     1.98    0.000    0.000       11        9     2062  Maize_short_Chisinau_22May_NonOptimum_26_MPI.PRM
  Tot(83)       22        5     2063    210.5    531.5   1270.1   441.00      0.0    189.1     21.4      0.4      0.0    116.2       43    247.4    194.4       92     0.000     0.000     0.000     0.000      107        0       42       25       10       24        4    14.231       62     40.8    5.802   -9.900     1.60    0.000    0.000       11        9     2063  Maize_short_Chisinau_22May_NonOptimum_26_MPI.PRM
  Tot(84)       22        5     2064    123.8    507.7   1223.5   440.00      0.0    122.1      1.7      3.7      0.0     95.5       40    235.6    185.6       85     0.000     0.000     0.000     0.000      107        0       42       25       11       15       11    14.254       60     40.4    5.759   -9.900     1.74    0.000    0.000       11        9     2064  Maize_short_Chisinau_22May_NonOptimum_26_MPI.PRM
  Tot(85)       22        5     2065    202.5    404.2   1066.0   440.00      0.0    196.0      6.5      0.0      0.0     89.2       47    207.6    160.6      100     0.000     0.000     0.000     0.000      107        0       42       25       21        1        0    15.582       75     40.0    6.233   -9.900     2.10    0.000    0.000       11        9     2065  Maize_short_Chisinau_22May_NonOptimum_26_MPI.PRM
  Tot(86)       22        5     2066    224.0    462.5   1104.9   440.00      0.0    216.8      7.2      6.4      0.0     93.0       45    248.2    193.9      100     0.000     0.000     0.000     0.000      107        0       42       25       14        2        0    16.216       75     40.0    6.490   -9.900     1.90    0.000    0.000       11        9     2066  Maize_short_Chisinau_22May_NonOptimum_26_MPI.PRM
  Tot(87)       22        5     2067    254.6    388.1    917.5   439.00      0.0    240.0     14.6     11.8      0.0     94.7       54    185.8    143.3      100     0.000     0.000     0.000     0.000      107        0       42       25       26        1        0    14.209       75     40.0    5.690   -9.900     2.03    0.000    0.000       11        9     2067  Maize_short_Chisinau_22May_NonOptimum_26_MPI.PRM
  Tot(88)       22        5     2068    247.6    430.1   1029.9   439.00      0.0    201.5     46.1     14.1      0.0     99.8       60    236.5    183.3      100     0.000     0.000     0.000     0.000      107        0       42       25       23        8        0    14.130       75     40.4    5.706   -9.900     1.70    0.000    0.000       11        9     2068  Maize_short_Chisinau_22May_NonOptimum_26_MPI.PRM
  Tot(89)       22        5     2069    250.8    482.4   1250.0   438.00      0.0    247.9      2.9      0.0      0.0    122.2       55    261.0    201.4      100     0.000     0.000     0.000     0.000      107        0       42       25        9        2        0    16.757       75     40.0    6.708   -9.900     1.75    0.000    0.000       11        9     2069  Maize_short_Chisinau_22May_NonOptimum_26_MPI.PRM
  Tot(90)       22        5     2070    167.5    502.2   1197.3   437.00      0.0    166.0      1.5      0.0      0.0     96.1       38    248.8    197.0       99     0.000     0.000     0.000     0.000      107        0       42       25       14       16        0    14.802       70     40.7    6.025   -9.900     1.75    0.000    0.000       11        9     2070  Maize_short_Chisinau_22May_NonOptimum_26_MPI.PRM
  Tot(91)       22        5     2071    159.9    526.4   1280.1   437.00      0.0    159.7      0.2      0.0      0.0    126.2       53    247.3    193.0       85     0.000     0.000     0.000     0.000      107        0       42       25        8       10       11    13.974       61     40.2    5.623   -9.900     1.51    0.000    0.000       11        9     2071  Maize_short_Chisinau_22May_NonOptimum_26_MPI.PRM
  Tot(92)       22        5     2072    230.9    555.1   1318.3   436.00      0.0    212.3     18.6     19.8      0.0    150.8       60    231.6    181.6       80     0.000     0.000     0.000     0.000      107        0       42       25        6       13       13    12.146       52     40.1    4.873   -9.900     1.27    0.000    0.000       11        9     2072  Maize_short_Chisinau_22May_NonOptimum_26_MPI.PRM
  Tot(93)       22        5     2073    102.1    551.6   1248.8   436.00      0.0    101.7      0.4      0.0      0.0     90.1       34    222.6    175.1       80     0.000     0.000     0.000     0.000      104        0       42       25       12       15       18    11.121       49     39.9    4.438   -9.900     1.42    0.000    0.000       11        9     2073  Maize_short_Chisinau_22May_NonOptimum_26_MPI.PRM
  Tot(94)       22        5     2074    177.8    501.8   1202.2   435.00      0.0    173.7      4.1      0.0      0.0     90.4       34    232.6    182.7       97     0.000     0.000     0.000     0.000      107        0       42       25       16       22        1    13.813       68     40.8    5.638   -9.900     1.75    0.000    0.000       11        9     2074  Maize_short_Chisinau_22May_NonOptimum_26_MPI.PRM
  Tot(95)       22        5     2075    294.5    472.1   1191.7   435.00      0.0    259.7     34.8     30.4      0.0    100.5       47    253.2    194.8      100     0.000     0.000     0.000     0.000      107        0       42       25       12        2        0    16.243       75     40.0    6.497   -9.900     1.84    0.000    0.000       11        9     2075  Maize_short_Chisinau_22May_NonOptimum_26_MPI.PRM
  Tot(96)       22        5     2076    122.0    553.6   1297.8   434.00      0.0    121.2      0.8      0.0      0.0     87.1       31    241.3    191.5       86     0.000     0.000     0.000     0.000      107        0       42       25        9       14        9    13.639       60     40.3    5.497   -9.900     1.67    0.000    0.000       11        9     2076  Maize_short_Chisinau_22May_NonOptimum_26_MPI.PRM
  Tot(97)       22        5     2077    152.6    568.0   1286.0   433.00      0.0    151.7      0.9      0.0      0.0    100.3       37    253.8    198.2       84     0.000     0.000     0.000     0.000      107        0       42       25        9       14       10    13.585       59     40.3    5.480   -9.900     1.55    0.000    0.000       11        9     2077  Maize_short_Chisinau_22May_NonOptimum_26_MPI.PRM
  Tot(98)       22        5     2078    194.2    469.0   1189.8   433.00      0.0    191.7      2.5      0.0      0.0     84.0       42    270.0    209.3      100     0.000     0.000     0.000     0.000      107        0       42       25       13        7        0    16.606       74     40.2    6.679   -9.900     1.89    0.000    0.000       11        9     2078  Maize_short_Chisinau_22May_NonOptimum_26_MPI.PRM
  Tot(99)       22        5     2079    277.2    414.9   1037.9   432.00      0.0    248.8     28.4     37.7      0.0    124.0       73    230.2    177.9      100     0.000     0.000     0.000     0.000      107        0       42       25       17        2        0    15.967       75     40.1    6.410   -9.900     1.81    0.000    0.000       11        9     2079  Maize_short_Chisinau_22May_NonOptimum_26_MPI.PRM
 Tot(100)       22        5     2080    151.1    490.5   1154.5   432.00      0.0    149.5      1.6      2.8      0.0    104.3       51    247.0    191.7       88     0.000     0.000     0.000     0.000      107        0       42       25       15        6        8    14.366       64     39.9    5.735   -9.900     1.63    0.000    0.000       11        9     2080  Maize_short_Chisinau_22May_NonOptimum_26_MPI.PRM
 Tot(101)       22        5     2081    212.9    471.6   1204.0   431.00      0.0    192.0     20.9     31.7      0.0    111.4       60    258.4    200.3       91     0.000     0.000     0.000     0.000      107        0       42       25       13        4        8    14.878       66     40.1    5.964   -9.900     1.61    0.000    0.000       11        9     2081  Maize_short_Chisinau_22May_NonOptimum_26_MPI.PRM
 Tot(102)       22        5     2082     90.2    516.2   1208.3   431.00      0.0     89.7      0.5      3.4      0.0     96.6       41    206.2    162.1       76     0.000     0.000     0.000     0.000      107        0       42       25       11       14       19    11.239       49     39.9    4.486   -9.900     1.48    0.000    0.000       11        9     2082  Maize_short_Chisinau_22May_NonOptimum_26_MPI.PRM
 Tot(103)       22        5     2083    146.7    524.4   1196.6   430.00      0.0    146.6      0.1      0.0      0.0    106.5       47    251.3    195.0       87     0.000     0.000     0.000     0.000      107        0       42       25       10        7       11    13.634       61     40.0    5.448   -9.900     1.52    0.000    0.000       11        9     2083  Maize_short_Chisinau_22May_NonOptimum_26_MPI.PRM
 Tot(104)       22        5     2084    322.6    442.4   1118.1   429.00      0.0    283.9     38.7     37.0      0.0    112.1       61    254.9    196.9      100     0.000     0.000     0.000     0.000      107        0       42       25       17        3        0    16.032       75     40.1    6.432   -9.900     1.75    0.000    0.000       11        9     2084  Maize_short_Chisinau_22May_NonOptimum_26_MPI.PRM
 Tot(105)       22        5     2085    151.3    477.1   1105.2   429.00      0.0    149.4      1.9      0.0      0.0     66.4       28    233.8    181.6      100     0.000     0.000     0.000     0.000      107        0       42       25       17        5        0    15.076       73     40.1    6.048   -9.900     2.01    0.000    0.000       11        9     2085  Maize_short_Chisinau_22May_NonOptimum_26_MPI.PRM
 Tot(106)       22        5     2086    140.6    476.4   1193.5   428.00      0.0    139.3      1.3      0.9      0.0    111.4       60    235.6    183.4       84     0.000     0.000     0.000     0.000      107        0       42       25       12        4       13    13.142       59     39.7    5.224   -9.900     1.51    0.000    0.000       11        9     2086  Maize_short_Chisinau_22May_NonOptimum_26_MPI.PRM
 Tot(107)       22        5     2087    180.9    482.4   1192.1   428.00      0.0    176.2      4.7     10.7      0.0    132.4       59    238.3    185.3       93     0.000     0.000     0.000     0.000      107        0       42       25       13        8        6    15.109       69     40.2    6.073   -9.900     1.64    0.000    0.000       11        9     2087  Maize_short_Chisinau_22May_NonOptimum_26_MPI.PRM
 Tot(108)       22        5     2088    146.3    551.3   1338.2   427.00      0.0    138.6      7.7     11.5      0.0    106.1       43    244.3    190.5       81     0.000     0.000     0.000     0.000      107        0       42       25        8        4       15    13.427       58     39.3    5.276   -9.900     1.51    0.000    0.000       11        9     2088  Maize_short_Chisinau_22May_NonOptimum_26_MPI.PRM
 Tot(109)       22        5     2089    277.6    435.8   1049.3   427.00      0.0    262.7     14.9     25.1      0.0    119.8       69    248.3    192.2      100     0.000     0.000     0.000     0.000      107        0       42       25       22        1        0    15.704       75     40.1    6.291   -9.900     1.71    0.000    0.000       11        9     2089  Maize_short_Chisinau_22May_NonOptimum_26_MPI.PRM
 Tot(110)       22        5     2090    184.4    483.7   1123.2   426.00      0.0    182.1      2.3      0.0      0.0     79.8       36    247.0    190.9      100     0.000     0.000     0.000     0.000      107        0       42       25       16        5        0    15.123       74     40.2    6.076   -9.900     1.86    0.000    0.000       11        9     2090  Maize_short_Chisinau_22May_NonOptimum_26_MPI.PRM
 Tot(111)       22        5     2091    232.8    542.4   1336.4   425.00      0.0    220.6     12.2     19.5      0.0    128.6       53    251.2    197.1       83     0.000     0.000     0.000     0.000      107        0       42       25        6        9       12    13.735       58     39.5    5.428   -9.900     1.43    0.000    0.000       11        9     2091  Maize_short_Chisinau_22May_NonOptimum_26_MPI.PRM
 Tot(112)       22        5     2092    221.7    427.8   1034.6   425.00      0.0    215.4      6.3      4.0      0.0    114.6       59    218.5    170.2      100     0.000     0.000     0.000     0.000      107        0       42       25       21        9        0    14.674       74     40.4    5.927   -9.900     1.78    0.000    0.000       11        9     2092  Maize_short_Chisinau_22May_NonOptimum_26_MPI.PRM
 Tot(113)       22        5     2093    247.5    432.5   1092.6   424.00      0.0    232.3     15.2      0.0      0.0    105.4       59    246.3    191.3      100     0.000     0.000     0.000     0.000      107        0       42       25       16        5        0    15.824       74     40.2    6.366   -9.900     1.81    0.000    0.000       11        9     2093  Maize_short_Chisinau_22May_NonOptimum_26_MPI.PRM
 Tot(114)       22        5     2094    119.9    612.6   1384.6   424.00      0.0    117.0      2.9      0.0      0.0     93.1       33    241.5    189.6       74     0.000     0.000     0.000     0.000      107        0       42       25        6       17       20    11.222       47     39.8    4.464   -9.900     1.33    0.000    0.000       11        9     2094  Maize_short_Chisinau_22May_NonOptimum_26_MPI.PRM
 Tot(115)       22        5     2095    155.6    534.5   1252.1   423.00      0.0    152.9      2.7      6.4      0.0    101.3       36    230.4    182.1       88     0.000     0.000     0.000     0.000      107        0       42       25       10       23        9    12.721       58     40.6    5.169   -9.900     1.56    0.000    0.000       11        9     2095  Maize_short_Chisinau_22May_NonOptimum_26_MPI.PRM
 Tot(116)       22        5     2096    112.6    573.3   1331.6   423.00      0.0    112.3      0.3      0.0      0.0    104.1       36    212.9    169.1       76     0.000     0.000     0.000     0.000      107        0       42       25        7       22       17    10.676       45     40.3    4.301   -9.900     1.36    0.000    0.000       11        9     2096  Maize_short_Chisinau_22May_NonOptimum_26_MPI.PRM
 Tot(117)       22        5     2097    209.9    451.3   1158.0   422.00      0.0    204.6      5.3     12.1      0.0    119.6       70    270.2    208.1       97     0.000     0.000     0.000     0.000      107        0       42       25       15        4        2    16.354       72     40.2    6.576   -9.900     1.69    0.000    0.000       11        9     2097  Maize_short_Chisinau_22May_NonOptimum_26_MPI.PRM
 Tot(118)       22        5     2098    216.0    474.8   1140.3   422.00      0.0    210.1      5.9      4.9      0.0    106.2       51    254.1    196.4      100     0.000     0.000     0.000     0.000      107        0       42       25       15        3        0    15.797       75     40.1    6.331   -9.900     1.76    0.000    0.000       11        9     2098  Maize_short_Chisinau_22May_NonOptimum_26_MPI.PRM
 Tot(119)       22        5     2099    221.8    412.9    972.5   421.00      0.0    212.5      9.3     20.8      0.0    102.3       59    215.1    167.7      100     0.000     0.000     0.000     0.000      107        0       42       25       26        1        0    14.642       75     40.1    5.864   -9.900     1.85    0.000    0.000       11        9     2099  Maize_short_Chisinau_22May_NonOptimum_26_MPI.PRM
