AquaCrop 7.0 (August 2022) - Output created on (date) : 23-11-2022   at (time) : 11:58:04

    RunNr     Day1   Month1    Year1     Rain      ETo       GD     CO2      Irri   Infilt   Runoff    Drain   Upflow        E     E/Ex       Tr      TrW   Tr/Trx    SaltIn   SaltOut    SaltUp  SaltProf     Cycle   SaltStr  FertStr  WeedStr  TempStr   ExpStr   StoStr  BioMass  Brelative   HI    Y(dry)  Y(fresh)    WPet      Bin     Bout     DayN   MonthN    YearN
                                           mm       mm  degC.day    ppm        mm       mm       mm       mm       mm       mm        %       mm       mm        %    ton/ha    ton/ha    ton/ha    ton/ha      days       %        %        %        %        %        %    ton/ha        %       %    ton/ha   ton/ha    kg/m3   ton/ha   ton/ha
   Tot(1)        6        6     1981    199.9    451.3   1202.5   340.11      0.0    168.9     31.0      0.0      0.0     98.0       45    218.0    169.3       95     0.000     0.000     0.000     0.000      107        0       42       25       17       16        2    13.099       69     40.8    5.349   -9.900     1.69    0.000    0.000       26        9     1981  Maize_short_Chisinau_6June_NonOptimum_26_MPI.PRM
   Tot(2)        6        6     1982    192.1    427.5   1217.6   341.22      0.0    191.6      0.5      0.0      0.0    140.8       75    245.0    190.5       99     0.000     0.000     0.000     0.000      107        0       42       25       10        1        1    16.210       74     40.1    6.500   -9.900     1.68    0.000    0.000       26        9     1982  Maize_short_Chisinau_6June_NonOptimum_26_MPI.PRM
   Tot(3)        6        6     1983    262.8    443.0   1188.8   342.84      0.0    240.7     22.1     39.3      0.0    123.0       64    240.7    186.9      100     0.000     0.000     0.000     0.000      107        0       42       25       12        2        0    15.370       75     40.0    6.150   -9.900     1.69    0.000    0.000       26        9     1983  Maize_short_Chisinau_6June_NonOptimum_26_MPI.PRM
   Tot(4)        6        6     1984    184.6    423.3   1101.0   344.40      0.0    181.4      3.2      7.2      0.0    136.9       71    220.8    170.5       99     0.000     0.000     0.000     0.000      107        0       42       25       16        6        1    15.077       74     40.3    6.076   -9.900     1.70    0.000    0.000       26        9     1984  Maize_short_Chisinau_6June_NonOptimum_26_MPI.PRM
   Tot(5)        6        6     1985    281.0    437.5   1120.2   345.87      0.0    247.3     33.7     63.0      0.0    137.1       76    236.2    184.7       97     0.000     0.000     0.000     0.000      107        0       42       25       20        4        2    13.912       73     40.2    5.592   -9.900     1.50    0.000    0.000       26        9     1985  Maize_short_Chisinau_6June_NonOptimum_26_MPI.PRM
   Tot(6)        6        6     1986    165.0    499.0   1263.3   347.19      0.0    162.3      2.7      5.9      0.0    118.1       52    247.8    192.8       93     0.000     0.000     0.000     0.000      107        0       42       25       13        7        8    13.743       67     40.2    5.527   -9.900     1.51    0.000    0.000       26        9     1986  Maize_short_Chisinau_6June_NonOptimum_26_MPI.PRM
   Tot(7)        6        6     1987    220.8    477.8   1198.4   348.98      0.0    212.1      8.7     13.2      0.0    114.5       50    234.2    181.1      100     0.000     0.000     0.000     0.000      107        0       42       25       15        5        0    14.236       75     40.2    5.719   -9.900     1.64    0.000    0.000       26        9     1987  Maize_short_Chisinau_6June_NonOptimum_26_MPI.PRM
   Tot(8)        6        6     1988    230.8    451.7   1243.1   351.45      0.0    200.8     30.0      1.9      0.0    101.3       48    241.5    188.8       99     0.000     0.000     0.000     0.000      107        0       42       25       14        9        0    14.703       73     40.5    5.954   -9.900     1.74    0.000    0.000       26        9     1988  Maize_short_Chisinau_6June_NonOptimum_26_MPI.PRM
   Tot(9)        6        6     1989    317.2    425.1   1179.8   352.89      0.0    284.4     32.8     13.0      0.0    118.7       59    221.5    172.2      100     0.000     0.000     0.000     0.000      107        0       42       25       14        2        0    14.847       75     40.1    5.948   -9.900     1.75    0.000    0.000       26        9     1989  Maize_short_Chisinau_6June_NonOptimum_26_MPI.PRM
  Tot(10)        6        6     1990    132.3    476.7   1149.2   354.16      0.0    130.1      2.2      3.3      0.0    118.7       50    204.5    161.3       91     0.000     0.000     0.000     0.000      107        0       42       25       17       14       10    11.760       62     40.5    4.758   -9.900     1.47    0.000    0.000       26        9     1990  Maize_short_Chisinau_6June_NonOptimum_26_MPI.PRM
  Tot(11)        6        6     1991    275.4    418.6   1253.8   355.48      0.0    261.5     13.9     18.7      0.0    129.6       66    218.7    169.0      100     0.000     0.000     0.000     0.000      107        0       42       25       11        1        0    15.257       75     40.0    6.105   -9.900     1.75    0.000    0.000       26        9     1991  Maize_short_Chisinau_6June_NonOptimum_26_MPI.PRM
  Tot(12)        6        6     1992    150.7    509.8   1276.3   356.27      0.0    145.6      5.1     13.2      0.0    120.0       50    218.1    173.2       83     0.000     0.000     0.000     0.000      107        0       42       25       13       19       15    11.171       55     40.5    4.524   -9.900     1.34    0.000    0.000       26        9     1992  Maize_short_Chisinau_6June_NonOptimum_26_MPI.PRM
  Tot(13)        6        6     1993    182.1    473.1   1085.2   356.95      0.0    180.2      1.9      0.0      0.0    113.6       50    223.8    173.6       97     0.000     0.000     0.000     0.000      107        0       42       25       21       12        1    13.129       71     40.6    5.328   -9.900     1.58    0.000    0.000       26        9     1993  Maize_short_Chisinau_6June_NonOptimum_26_MPI.PRM
  Tot(14)        6        6     1994    231.2    503.3   1362.6   358.63      0.0    182.4     48.8     16.1      0.0     83.3       33    262.5    206.0       97     0.000     0.000     0.000     0.000      107        0       42       25        4       21        2    15.529       68     40.9    6.354   -9.900     1.84    0.000    0.000       26        9     1994  Maize_short_Chisinau_6June_NonOptimum_26_MPI.PRM
  Tot(15)        6        6     1995    234.6    464.0   1267.5   360.62      0.0    221.2     13.4      0.0      0.0    105.9       47    237.4    186.1      100     0.000     0.000     0.000     0.000      107        0       42       25       12        6        0    14.894       74     40.3    6.002   -9.900     1.75    0.000    0.000       26        9     1995  Maize_short_Chisinau_6June_NonOptimum_26_MPI.PRM
  Tot(16)        6        6     1996    265.4    465.3   1136.8   362.37      0.0    227.9     37.5      0.0      0.0     93.6       35    193.4    151.9       99     0.000     0.000     0.000     0.000      107        0       42       25       23       17        0    12.330       70     40.7    5.021   -9.900     1.75    0.000    0.000       26        9     1996  Maize_short_Chisinau_6June_NonOptimum_26_MPI.PRM
  Tot(17)        6        6     1997    315.0    407.4   1143.8   363.47      0.0    294.3     20.7      7.2      0.0    131.8       67    192.3    149.5      100     0.000     0.000     0.000     0.000      107        0       42       25       17        1        0    14.118       75     40.0    5.647   -9.900     1.74    0.000    0.000       26        9     1997  Maize_short_Chisinau_6June_NonOptimum_26_MPI.PRM
  Tot(18)        6        6     1998    223.6    463.9   1226.6   366.50      0.0    217.1      6.5      0.0      0.0    129.6       63    237.8    184.4       97     0.000     0.000     0.000     0.000      107        0       42       25       16        9        2    13.879       71     40.6    5.628   -9.900     1.53    0.000    0.000       26        9     1998  Maize_short_Chisinau_6June_NonOptimum_26_MPI.PRM
  Tot(19)        6        6     1999    153.2    491.5   1394.7   368.14      0.0    151.2      2.0      1.9      0.0    114.9       46    237.4    186.0       95     0.000     0.000     0.000     0.000      107        0       42       25        7       15        5    14.664       68     40.5    5.939   -9.900     1.69    0.000    0.000       26        9     1999  Maize_short_Chisinau_6June_NonOptimum_26_MPI.PRM
  Tot(20)        6        6     2000    210.5    500.1   1200.6   369.41      0.0    203.8      6.7      0.0      0.0     93.1       37    248.7    194.4       99     0.000     0.000     0.000     0.000      107        0       42       25       18        7        0    14.336       73     40.3    5.781   -9.900     1.69    0.000    0.000       26        9     2000  Maize_short_Chisinau_6June_NonOptimum_26_MPI.PRM
  Tot(21)        6        6     2001    206.9    490.4   1341.7   371.07      0.0    193.1     13.8      1.1      0.0    112.9       49    231.8    182.2       89     0.000     0.000     0.000     0.000      107        0       42       25        9       17        7    13.189       61     40.7    5.364   -9.900     1.56    0.000    0.000       26        9     2001  Maize_short_Chisinau_6June_NonOptimum_26_MPI.PRM
  Tot(22)        6        6     2002    290.9    484.3   1361.3   373.16      0.0    261.3     29.6     17.0      0.0     92.9       37    246.0    191.1      100     0.000     0.000     0.000     0.000      107        0       42       25        8        4        0    15.735       73     40.0    6.294   -9.900     1.86    0.000    0.000       26        9     2002  Maize_short_Chisinau_6June_NonOptimum_26_MPI.PRM
  Tot(23)        6        6     2003    217.4    513.0   1265.0   375.80      0.0    213.7      3.7      0.0      0.0    117.9       48    262.4    204.0      100     0.000     0.000     0.000     0.000      107        0       42       25       13        3        0    15.257       74     40.1    6.120   -9.900     1.61    0.000    0.000       26        9     2003  Maize_short_Chisinau_6June_NonOptimum_26_MPI.PRM
  Tot(24)        6        6     2004    185.9    481.7   1215.0   377.49      0.0    178.0      7.9     18.8      0.0     87.9       36    237.4    184.1      100     0.000     0.000     0.000     0.000      107        0       42       25       12        5        0    15.117       74     40.2    6.077   -9.900     1.87    0.000    0.000       26        9     2004  Maize_short_Chisinau_6June_NonOptimum_26_MPI.PRM
  Tot(25)        6        6     2005    243.9    464.2   1283.3   379.80      0.0    230.6     13.3     16.9      0.0    122.7       58    259.9    201.0      100     0.000     0.000     0.000     0.000      107        0       42       25        7        7        0    16.529       74     40.2    6.646   -9.900     1.74    0.000    0.000       26        9     2005  Maize_short_Chisinau_6June_NonOptimum_26_MPI.PRM
  Tot(26)        6        6     2006    224.5    508.3   1271.8   381.90      0.0    219.8      4.7      9.9      0.0    115.6       47    268.5    209.8      100     0.000     0.000     0.000     0.000      107        0       42       25        9        9        0    15.872       73     40.3    6.391   -9.900     1.66    0.000    0.000       26        9     2006  Maize_short_Chisinau_6June_NonOptimum_26_MPI.PRM
  Tot(27)        6        6     2007    158.6    581.7   1358.0   383.77      0.0    158.1      0.5      0.0      0.0    110.8       32    235.1    188.2       95     0.000     0.000     0.000     0.000      107        0       42       25       11       21        3    12.887       62     40.3    5.188   -9.900     1.50    0.000    0.000       26        9     2007  Maize_short_Chisinau_6June_NonOptimum_26_MPI.PRM
  Tot(28)        6        6     2008    239.5    514.8   1289.7   385.59      0.0    227.2     12.3      4.8      0.0    119.9       47    250.8    196.4       94     0.000     0.000     0.000     0.000      107        0       42       25       14        6        4    13.658       68     40.2    5.485   -9.900     1.48    0.000    0.000       26        9     2008  Maize_short_Chisinau_6June_NonOptimum_26_MPI.PRM
  Tot(29)        6        6     2009    175.7    556.7   1379.5   387.37      0.0    173.5      2.2      0.0      0.0    116.2       42    265.1    207.4       91     0.000     0.000     0.000     0.000      107        0       42       25        6       10        8    14.406       64     40.2    5.791   -9.900     1.52    0.000    0.000       26        9     2009  Maize_short_Chisinau_6June_NonOptimum_26_MPI.PRM
  Tot(30)        6        6     2010    248.7    490.7   1382.9   389.85      0.0    230.1     18.6     30.3      0.0    125.5       55    241.0    187.5       91     0.000     0.000     0.000     0.000      107        0       42       25       11       12        5    14.053       66     40.6    5.709   -9.900     1.56    0.000    0.000       26        9     2010  Maize_short_Chisinau_6June_NonOptimum_26_MPI.PRM
  Tot(31)        6        6     2011    205.0    522.5   1358.5   391.63      0.0    185.1     19.9     29.8      0.0    141.0       56    230.2    181.5       84     0.000     0.000     0.000     0.000      107        0       42       25        7       11       16    12.567       54     40.0    5.022   -9.900     1.35    0.000    0.000       26        9     2011  Maize_short_Chisinau_6June_NonOptimum_26_MPI.PRM
  Tot(32)        6        6     2012    146.0    597.2   1443.1   393.82      0.0    144.1      1.9      3.1      0.0     98.3       30    244.6    192.7       88     0.000     0.000     0.000     0.000      107        0       42       25        5       21       11    12.352       55     40.2    4.969   -9.900     1.45    0.000    0.000       26        9     2012  Maize_short_Chisinau_6June_NonOptimum_26_MPI.PRM
  Tot(33)        6        6     2013    345.4    493.2   1303.2   396.48      0.0    292.7     52.7     37.3      0.0    119.6       50    240.9    188.9       97     0.000     0.000     0.000     0.000      107        0       42       25       12       10        2    14.447       70     40.5    5.850   -9.900     1.62    0.000    0.000       26        9     2013  Maize_short_Chisinau_6June_NonOptimum_26_MPI.PRM
  Tot(34)        6        6     2014    170.9    550.3   1350.4   398.55      0.0    169.2      1.7      0.0      0.0    105.2       42    270.6    211.2       89     0.000     0.000     0.000     0.000      107        0       42       25        9       10       10    14.068       64     40.2    5.654   -9.900     1.50    0.000    0.000       26        9     2014  Maize_short_Chisinau_6June_NonOptimum_26_MPI.PRM
  Tot(35)        6        6     2015    125.4    579.0   1437.4   401.00      0.0    124.8      0.6      0.0      0.0    129.4       40    205.3    162.9       81     0.000     0.000     0.000     0.000      102        0       42       25        5       24       18    10.096       44     39.3    3.970   -9.900     1.20    0.000    0.000       26        9     2015  Maize_short_Chisinau_6June_NonOptimum_26_MPI.PRM
  Tot(36)        6        6     2016    160.2    553.8   1415.3   403.00      0.0    154.0      6.2     12.5      0.0    129.1       43    213.2    168.6       82     0.000     0.000     0.000     0.000      107        0       42       25        8       21       15    11.069       50     40.2    4.447   -9.900     1.30    0.000    0.000       26        9     2016  Maize_short_Chisinau_6June_NonOptimum_26_MPI.PRM
  Tot(37)        6        6     2017    253.3    534.3   1396.1   405.00      0.0    233.1     20.2     24.7      0.0    138.7       57    279.8    217.1       93     0.000     0.000     0.000     0.000      107        0       42       25        6        4        7    15.392       68     39.9    6.149   -9.900     1.47    0.000    0.000       26        9     2017  Maize_short_Chisinau_6June_NonOptimum_26_MPI.PRM
  Tot(38)        6        6     2018    286.1    507.8   1446.5   408.00      0.0    269.1     17.0     27.6      0.0    155.4       69    278.6    216.5       94     0.000     0.000     0.000     0.000      107        0       42       25        6        2        4    16.161       70     40.1    6.476   -9.900     1.49    0.000    0.000       26        9     2018  Maize_short_Chisinau_6June_NonOptimum_26_MPI.PRM
  Tot(39)        6        6     2019    156.4    558.4   1419.7   410.00      0.0    153.3      3.1      1.1      0.0    117.3       42    245.5    191.8       86     0.000     0.000     0.000     0.000      107        0       42       25        7        9       15    13.047       58     39.7    5.174   -9.900     1.43    0.000    0.000       26        9     2019  Maize_short_Chisinau_6June_NonOptimum_26_MPI.PRM
  Tot(40)        6        6     2020    231.7    427.4   1095.9   412.00      0.0    204.8     26.9     24.0      0.0    117.1       58    203.6    159.8      100     0.000     0.000     0.000     0.000      107        0       42       25       22       16        0    13.308       73     40.5    5.395   -9.900     1.68    0.000    0.000       26        9     2020  Maize_short_Chisinau_6June_NonOptimum_26_MPI.PRM
  Tot(41)        6        6     2021    175.5    449.9   1124.8   414.00      0.0    172.6      2.9      0.0      0.0     67.2       30    224.6    174.8      100     0.000     0.000     0.000     0.000      107        0       42       25       16        4        0    15.229       74     40.0    6.096   -9.900     2.09    0.000    0.000       26        9     2021  Maize_short_Chisinau_6June_NonOptimum_26_MPI.PRM
  Tot(42)        6        6     2022    146.4    462.0   1128.0   417.00      0.0    144.1      2.3      8.1      0.0    107.1       53    227.4    178.1       94     0.000     0.000     0.000     0.000      107        0       42       25       18       19        5    13.357       67     40.8    5.447   -9.900     1.63    0.000    0.000       26        9     2022  Maize_short_Chisinau_6June_NonOptimum_26_MPI.PRM
  Tot(43)        6        6     2023    163.1    541.6   1262.5   419.00      0.0    159.6      3.5      0.0      0.0    104.1       36    227.3    178.9       91     0.000     0.000     0.000     0.000      107        0       42       25       12       17        6    13.065       62     40.4    5.280   -9.900     1.59    0.000    0.000       26        9     2023  Maize_short_Chisinau_6June_NonOptimum_26_MPI.PRM
  Tot(44)        6        6     2024    124.3    485.6   1174.3   421.00      0.0    124.3      0.0      0.0      0.0    101.7       44    233.0    182.6       92     0.000     0.000     0.000     0.000      107        0       42       25       14       15        8    14.056       64     40.5    5.694   -9.900     1.70    0.000    0.000       26        9     2024  Maize_short_Chisinau_6June_NonOptimum_26_MPI.PRM
  Tot(45)        6        6     2025    221.0    467.1   1180.1   423.00      0.0    211.7      9.3      0.0      0.0     78.1       30    201.3    157.1      100     0.000     0.000     0.000     0.000      107        0       42       25       16        5        0    14.321       73     40.2    5.751   -9.900     2.06    0.000    0.000       26        9     2025  Maize_short_Chisinau_6June_NonOptimum_26_MPI.PRM
  Tot(46)        6        6     2026    152.2    510.8   1166.0   424.00      0.0    147.1      5.1      0.0      0.0    102.6       40    220.9    173.2       91     0.000     0.000     0.000     0.000      107        0       42       25       16       10        6    12.872       64     40.2    5.173   -9.900     1.60    0.000    0.000       26        9     2026  Maize_short_Chisinau_6June_NonOptimum_26_MPI.PRM
  Tot(47)        6        6     2027    179.6    422.3   1091.6   426.00      0.0    176.4      3.2      8.0      0.0    102.5       55    223.2    172.6      100     0.000     0.000     0.000     0.000      107        0       42       25       19        3        0    15.447       75     40.1    6.201   -9.900     1.90    0.000    0.000       26        9     2027  Maize_short_Chisinau_6June_NonOptimum_26_MPI.PRM
  Tot(48)        6        6     2028    252.8    405.2   1035.5   428.00      0.0    232.7     20.1     44.4      0.0    106.6       57    199.9    154.6      100     0.000     0.000     0.000     0.000      107        0       42       25       20        1        0    15.094       75     40.0    6.038   -9.900     1.97    0.000    0.000       26        9     2028  Maize_short_Chisinau_6June_NonOptimum_26_MPI.PRM
  Tot(49)        6        6     2029    164.2    426.2   1027.0   429.00      0.0    155.9      8.3     17.0      0.0     97.9       52    204.5    160.1       96     0.000     0.000     0.000     0.000      107        0       42       25       23       11        3    13.231       71     40.6    5.372   -9.900     1.78    0.000    0.000       26        9     2029  Maize_short_Chisinau_6June_NonOptimum_26_MPI.PRM
  Tot(50)        6        6     2030    152.2    512.3   1152.3   431.00      0.0    147.4      4.8     17.0      0.0    127.9       52    200.4    158.2       82     0.000     0.000     0.000     0.000      107        0       42       25       19       20       13    10.353       52     40.4    4.185   -9.900     1.27    0.000    0.000       26        9     2030  Maize_short_Chisinau_6June_NonOptimum_26_MPI.PRM
  Tot(51)        6        6     2031    170.3    446.8   1111.1   432.00      0.0    169.9      0.4      0.0      0.0     91.0       40    196.4    152.5      100     0.000     0.000     0.000     0.000      107        0       42       25       20        3        0    13.589       74     40.0    5.442   -9.900     1.89    0.000    0.000       26        9     2031  Maize_short_Chisinau_6June_NonOptimum_26_MPI.PRM
  Tot(52)        6        6     2032    226.3    455.4   1057.4   433.00      0.0    180.0     46.3     41.1      0.0    110.5       56    217.2    169.2       97     0.000     0.000     0.000     0.000      107        0       42       25       22        8        4    12.967       72     40.3    5.224   -9.900     1.59    0.000    0.000       26        9     2032  Maize_short_Chisinau_6June_NonOptimum_26_MPI.PRM
  Tot(53)        6        6     2033    189.3    432.9   1023.2   435.00      0.0    183.9      5.4      7.2      0.0     96.7       54    221.7    171.9      100     0.000     0.000     0.000     0.000      107        0       42       25       21        1        0    14.312       75     40.0    5.730   -9.900     1.80    0.000    0.000       26        9     2033  Maize_short_Chisinau_6June_NonOptimum_26_MPI.PRM
  Tot(54)        6        6     2034    194.2    476.8   1212.0   436.00      0.0    191.7      2.5      0.8      0.0    119.1       50    229.7    178.5       99     0.000     0.000     0.000     0.000      107        0       42       25       15       16        0    14.709       72     40.8    5.995   -9.900     1.72    0.000    0.000       26        9     2034  Maize_short_Chisinau_6June_NonOptimum_26_MPI.PRM
  Tot(55)        6        6     2035    249.5    483.4   1155.9   437.00      0.0    203.7     45.8      7.5      0.0    101.7       45    237.1    185.6       94     0.000     0.000     0.000     0.000      107        0       42       25       15        8        3    14.374       68     40.4    5.800   -9.900     1.71    0.000    0.000       26        9     2035  Maize_short_Chisinau_6June_NonOptimum_26_MPI.PRM
  Tot(56)        6        6     2036    185.0    440.2   1107.9   438.00      0.0    183.4      1.6      0.8      0.0    108.6       53    219.8    171.5      100     0.000     0.000     0.000     0.000      107        0       42       25       18        3        0    15.090       75     40.1    6.051   -9.900     1.84    0.000    0.000       26        9     2036  Maize_short_Chisinau_6June_NonOptimum_26_MPI.PRM
  Tot(57)        6        6     2037    239.8    415.7   1098.9   438.00      0.0    218.5     21.3     16.2      0.0     90.9       46    213.6    165.9      100     0.000     0.000     0.000     0.000      107        0       42       25       17        2        0    16.058       75     40.0    6.429   -9.900     2.11    0.000    0.000       26        9     2037  Maize_short_Chisinau_6June_NonOptimum_26_MPI.PRM
  Tot(58)        6        6     2038    157.8    429.4   1100.9   439.00      0.0    156.1      1.7      0.0      0.0     70.7       36    209.1    163.0      100     0.000     0.000     0.000     0.000      107        0       42       25       19        3        0    14.283       75     40.1    5.727   -9.900     2.05    0.000    0.000       26        9     2038  Maize_short_Chisinau_6June_NonOptimum_26_MPI.PRM
  Tot(59)        6        6     2039    162.3    536.6   1197.6   440.00      0.0    151.8     10.5      0.0      0.0     87.3       29    237.0    187.7      100     0.000     0.000     0.000     0.000      107        0       42       25       13       22        0    14.327       67     40.6    5.821   -9.900     1.80    0.000    0.000       26        9     2039  Maize_short_Chisinau_6June_NonOptimum_26_MPI.PRM
  Tot(60)        6        6     2040    136.8    505.3   1183.7   440.00      0.0    136.6      0.2      0.0      0.0    101.5       43    237.1    185.5       89     0.000     0.000     0.000     0.000      107        0       42       25       12       11        9    13.992       64     40.2    5.630   -9.900     1.66    0.000    0.000       26        9     2040  Maize_short_Chisinau_6June_NonOptimum_26_MPI.PRM
  Tot(61)        6        6     2041    204.7    533.1   1174.1   441.00      0.0    186.0     18.7      9.9      0.0    119.3       41    190.9    152.3       81     0.000     0.000     0.000     0.000      107        0       42       25       17       28       10     9.846       49     40.6    4.000   -9.900     1.29    0.000    0.000       26        9     2041  Maize_short_Chisinau_6June_NonOptimum_26_MPI.PRM
  Tot(62)        6        6     2042    250.9    415.2   1070.0   441.00      0.0    224.8     26.1      3.5      0.0     99.8       49    190.6    148.6      100     0.000     0.000     0.000     0.000      107        0       42       25       18        2        0    14.834       75     40.1    5.944   -9.900     2.05    0.000    0.000       26        9     2042  Maize_short_Chisinau_6June_NonOptimum_26_MPI.PRM
  Tot(63)        6        6     2043    139.3    440.1   1018.7   441.00      0.0    137.8      1.5      0.0      0.0    115.2       57    195.9    153.5       90     0.000     0.000     0.000     0.000      107        0       42       25       25       16        7    12.097       64     40.6    4.909   -9.900     1.58    0.000    0.000       26        9     2043  Maize_short_Chisinau_6June_NonOptimum_26_MPI.PRM
  Tot(64)        6        6     2044    266.2    387.9   1019.2   442.00      0.0    251.9     14.3     28.1      0.0    101.6       53    169.3    132.4      100     0.000     0.000     0.000     0.000      107        0       42       25       26        2        0    13.507       75     40.0    5.404   -9.900     1.99    0.000    0.000       26        9     2044  Maize_short_Chisinau_6June_NonOptimum_26_MPI.PRM
  Tot(65)        6        6     2045    244.6    423.9   1174.6   442.00      0.0    220.0     24.6     47.8      0.0     84.1       43    221.6    170.8      100     0.000     0.000     0.000     0.000      107        0       42       25       13        2        0    16.170       75     40.0    6.472   -9.900     2.12    0.000    0.000       26        9     2045  Maize_short_Chisinau_6June_NonOptimum_26_MPI.PRM
  Tot(66)        6        6     2046    115.5    425.6   1127.3   442.00      0.0    115.5      0.0      0.0      0.0     72.4       36    203.8    160.0      100     0.000     0.000     0.000     0.000      107        0       42       25       17        8        0    14.567       73     40.3    5.874   -9.900     2.13    0.000    0.000       26        9     2046  Maize_short_Chisinau_6June_NonOptimum_26_MPI.PRM
  Tot(67)        6        6     2047    321.7    431.2   1173.1   442.00      0.0    283.4     38.3     55.4      0.0    105.7       56    241.7    187.8      100     0.000     0.000     0.000     0.000      107        0       42       25       13        1        0    16.612       75     40.0    6.653   -9.900     1.91    0.000    0.000       26        9     2047  Maize_short_Chisinau_6June_NonOptimum_26_MPI.PRM
  Tot(68)        6        6     2048    178.8    443.5   1184.8   442.00      0.0    161.0     17.8      0.0      0.0     86.1       41    227.7    175.8      100     0.000     0.000     0.000     0.000      107        0       42       25       12        2        0    16.481       74     40.0    6.593   -9.900     2.10    0.000    0.000       26        9     2048  Maize_short_Chisinau_6June_NonOptimum_26_MPI.PRM
  Tot(69)        6        6     2049    102.9    530.3   1158.2   443.00      0.0    101.5      1.4      0.0      0.0     85.5       32    215.7    170.7       87     0.000     0.000     0.000     0.000      107        0       42       25       17       18       11    11.834       58     40.6    4.800   -9.900     1.59    0.000    0.000       26        9     2049  Maize_short_Chisinau_6June_NonOptimum_26_MPI.PRM
  Tot(70)        6        6     2050    281.3    432.9   1058.1   443.00      0.0    254.2     27.1     44.4      0.0    116.8       56    197.9    154.4      100     0.000     0.000     0.000     0.000      107        0       42       25       22        2        0    13.786       75     40.0    5.521   -9.900     1.75    0.000    0.000       26        9     2050  Maize_short_Chisinau_6June_NonOptimum_26_MPI.PRM
  Tot(71)        6        6     2051    147.9    457.0   1120.2   443.00      0.0    147.4      0.5      2.1      0.0    111.3       52    227.0    176.8       97     0.000     0.000     0.000     0.000      107        0       42       25       13        7        4    15.019       71     40.2    6.043   -9.900     1.79    0.000    0.000       26        9     2051  Maize_short_Chisinau_6June_NonOptimum_26_MPI.PRM
  Tot(72)        6        6     2052    208.5    431.0   1093.7   443.00      0.0    199.5      9.0      0.0      0.0     97.6       42    174.2    136.0      100     0.000     0.000     0.000     0.000      107        0       42       25       21        5        0    13.502       73     40.0    5.402   -9.900     1.99    0.000    0.000       26        9     2052  Maize_short_Chisinau_6June_NonOptimum_26_MPI.PRM
  Tot(73)        6        6     2053    119.3    483.1   1158.8   443.00      0.0    118.9      0.4      0.0      0.0     80.4       39    241.3    187.3       95     0.000     0.000     0.000     0.000      107        0       42       25       17        5        4    14.525       70     40.3    5.847   -9.900     1.82    0.000    0.000       26        9     2053  Maize_short_Chisinau_6June_NonOptimum_26_MPI.PRM
  Tot(74)        6        6     2054    263.8    459.6   1133.2   443.00      0.0    227.4     36.4      0.0      0.0     86.4       41    244.8    191.0      100     0.000     0.000     0.000     0.000      107        0       42       25       17        4        0    15.559       74     40.1    6.241   -9.900     1.88    0.000    0.000       26        9     2054  Maize_short_Chisinau_6June_NonOptimum_26_MPI.PRM
  Tot(75)        6        6     2055    117.7    510.7   1243.5   443.00      0.0    117.4      0.3      0.0      0.0     96.5       38    231.7    181.4       92     0.000     0.000     0.000     0.000      107        0       42       25       12       14        8    13.949       64     40.5    5.648   -9.900     1.72    0.000    0.000       26        9     2055  Maize_short_Chisinau_6June_NonOptimum_26_MPI.PRM
  Tot(76)        6        6     2056     66.5    526.2   1206.5   442.00      0.0     66.3      0.2      0.0      0.0     82.7       30    199.6    158.3       81     0.000     0.000     0.000     0.000      105        0       42       25       11       17       17    11.285       51     39.8    4.487   -9.900     1.59    0.000    0.000       26        9     2056  Maize_short_Chisinau_6June_NonOptimum_26_MPI.PRM
  Tot(77)        6        6     2057    106.3    502.0   1250.2   442.00      0.0    105.9      0.4      0.0      0.0     74.4       33    240.5    186.9       88     0.000     0.000     0.000     0.000      107        0       42       25       11       10        8    14.163       62     40.1    5.679   -9.900     1.80    0.000    0.000       26        9     2057  Maize_short_Chisinau_6June_NonOptimum_26_MPI.PRM
  Tot(78)        6        6     2058    180.5    515.2   1197.1   442.00      0.0    173.4      7.1      0.0      0.0     85.1       29    216.2    169.9      100     0.000     0.000     0.000     0.000      107        0       42       25       19       13        0    13.212       71     40.6    5.362   -9.900     1.78    0.000    0.000       26        9     2058  Maize_short_Chisinau_6June_NonOptimum_26_MPI.PRM
  Tot(79)        6        6     2059    237.7    452.1   1180.3   442.00      0.0    172.6     65.1      0.0      0.0     75.3       31    200.6    157.1      100     0.000     0.000     0.000     0.000      107        0       42       25       17       14        0    13.939       72     40.6    5.665   -9.900     2.05    0.000    0.000       26        9     2059  Maize_short_Chisinau_6June_NonOptimum_26_MPI.PRM
  Tot(80)        6        6     2060     62.4    495.1   1254.6   442.00      0.0     62.4      0.0      0.0      0.0     63.0       26    201.2    159.3       81     0.000     0.000     0.000     0.000      107        0       42       25       13       22       14    11.216       51     40.3    4.524   -9.900     1.71    0.000    0.000       26        9     2060  Maize_short_Chisinau_6June_NonOptimum_26_MPI.PRM
  Tot(81)        6        6     2061    176.5    489.4   1241.6   441.00      0.0    172.5      4.0      0.0      0.0     88.9       36    243.5    189.7       98     0.000     0.000     0.000     0.000      107        0       42       25       12        5        1    15.454       72     40.1    6.198   -9.900     1.86    0.000    0.000       26        9     2061  Maize_short_Chisinau_6June_NonOptimum_26_MPI.PRM
  Tot(82)        6        6     2062    160.0    390.5    944.7   441.00      0.0    157.8      2.2      2.9      0.0     98.8       60    188.6    145.6      100     0.000     0.000     0.000     0.000      107        0       42       25       27        1        0    13.405       75     40.0    5.365   -9.900     1.87    0.000    0.000       26        9     2062  Maize_short_Chisinau_6June_NonOptimum_26_MPI.PRM
  Tot(83)        6        6     2063    201.5    504.3   1229.0   441.00      0.0    174.1     27.4     12.8      0.0     86.7       31    226.4    176.6      100     0.000     0.000     0.000     0.000      107        0       42       25       13       15        0    14.563       70     40.5    5.898   -9.900     1.88    0.000    0.000       26        9     2063  Maize_short_Chisinau_6June_NonOptimum_26_MPI.PRM
  Tot(84)        6        6     2064    156.7    495.1   1195.4   440.00      0.0    153.3      3.4      2.4      0.0     93.4       37    221.1    175.4       94     0.000     0.000     0.000     0.000      107        0       42       25       16       18        6    13.984       66     40.6    5.683   -9.900     1.81    0.000    0.000       26        9     2064  Maize_short_Chisinau_6June_NonOptimum_26_MPI.PRM
  Tot(85)        6        6     2065    190.4    383.7   1057.7   440.00      0.0    182.2      8.2     11.1      0.0     91.4       51    195.6    151.3      100     0.000     0.000     0.000     0.000      107        0       42       25       21        1        0    15.320       75     40.1    6.138   -9.900     2.14    0.000    0.000       26        9     2065  Maize_short_Chisinau_6June_NonOptimum_26_MPI.PRM
  Tot(86)        6        6     2066    233.4    435.5   1048.4   440.00      0.0    221.4     12.0      0.0      0.0     98.3       48    209.3    162.1      100     0.000     0.000     0.000     0.000      107        0       42       25       21        1        0    14.193       75     40.1    5.685   -9.900     1.85    0.000    0.000       26        9     2066  Maize_short_Chisinau_6June_NonOptimum_26_MPI.PRM
  Tot(87)        6        6     2067    249.8    369.4    934.3   439.00      0.0    232.8     17.0     21.3      0.0    104.0       62    169.6    131.8      100     0.000     0.000     0.000     0.000      107        0       42       25       26        1        0    13.664       76     40.0    5.467   -9.900     2.00    0.000    0.000       26        9     2067  Maize_short_Chisinau_6June_NonOptimum_26_MPI.PRM
  Tot(88)        6        6     2068    202.5    425.4   1033.4   439.00      0.0    163.6     38.9      0.0      0.0     82.1       42    198.5    153.0      100     0.000     0.000     0.000     0.000      107        0       42       25       25        4        0    13.163       74     40.1    5.273   -9.900     1.88    0.000    0.000       26        9     2068  Maize_short_Chisinau_6June_NonOptimum_26_MPI.PRM
  Tot(89)        6        6     2069    260.0    441.1   1211.5   438.00      0.0    255.3      4.7      5.4      0.0    129.4       61    225.0    176.9      100     0.000     0.000     0.000     0.000      107        0       42       25       14        1        0    15.586       75     40.0    6.240   -9.900     1.76    0.000    0.000       26        9     2069  Maize_short_Chisinau_6June_NonOptimum_26_MPI.PRM
  Tot(90)        6        6     2070    143.0    475.3   1142.0   437.00      0.0    141.6      1.4      0.2      0.0     74.9       28    188.7    147.2      100     0.000     0.000     0.000     0.000      107        0       42       25       20        9        0    13.053       71     40.1    5.240   -9.900     1.99    0.000    0.000       26        9     2070  Maize_short_Chisinau_6June_NonOptimum_26_MPI.PRM
  Tot(91)        6        6     2071    134.8    508.5   1278.5   437.00      0.0    134.2      0.6      2.8      0.0    122.9       51    227.4    179.2       85     0.000     0.000     0.000     0.000      107        0       42       25        7       19       13    13.224       58     40.4    5.345   -9.900     1.53    0.000    0.000       26        9     2071  Maize_short_Chisinau_6June_NonOptimum_26_MPI.PRM
  Tot(92)        6        6     2072    229.3    517.2   1242.8   436.00      0.0    205.3     24.0     31.3      0.0    119.4       46    214.9    170.3       85     0.000     0.000     0.000     0.000      107        0       42       25       14       26        8    11.720       56     40.7    4.771   -9.900     1.43    0.000    0.000       26        9     2072  Maize_short_Chisinau_6June_NonOptimum_26_MPI.PRM
  Tot(93)        6        6     2073    214.2    514.8   1256.0   436.00      0.0    177.1     37.1      0.0      0.0     97.9       35    199.7    158.9       85     0.000     0.000     0.000     0.000      107        0       42       25       13       24       10    10.850       53     40.6    4.406   -9.900     1.48    0.000    0.000       26        9     2073  Maize_short_Chisinau_6June_NonOptimum_26_MPI.PRM
  Tot(94)        6        6     2074    165.7    478.8   1169.6   435.00      0.0    163.3      2.4      0.0      0.0     72.7       27    195.0    151.5      100     0.000     0.000     0.000     0.000      107        0       42       25       22       10        0    12.884       70     40.1    5.161   -9.900     1.93    0.000    0.000       26        9     2074  Maize_short_Chisinau_6June_NonOptimum_26_MPI.PRM
  Tot(95)        6        6     2075    272.0    453.9   1166.1   435.00      0.0    235.6     36.4     48.8      0.0    105.4       52    237.8    185.1      100     0.000     0.000     0.000     0.000      107        0       42       25       16        2        0    15.783       75     40.1    6.336   -9.900     1.85    0.000    0.000       26        9     2075  Maize_short_Chisinau_6June_NonOptimum_26_MPI.PRM
  Tot(96)        6        6     2076    117.2    527.4   1245.3   434.00      0.0    116.5      0.7      0.0      0.0     78.3       29    231.7    182.4       94     0.000     0.000     0.000     0.000      107        0       42       25       15       17        4    13.297       66     40.8    5.420   -9.900     1.75    0.000    0.000       26        9     2076  Maize_short_Chisinau_6June_NonOptimum_26_MPI.PRM
  Tot(97)        6        6     2077    150.8    530.8   1243.4   433.00      0.0    149.2      1.6      0.8      0.0    111.5       43    241.0    189.1       88     0.000     0.000     0.000     0.000      107        0       42       25       11       21        9    13.523       61     40.7    5.503   -9.900     1.56    0.000    0.000       26        9     2077  Maize_short_Chisinau_6June_NonOptimum_26_MPI.PRM
  Tot(98)        6        6     2078    220.3    450.2   1165.2   433.00      0.0    217.2      3.1      1.9      0.0    103.8       50    231.2    179.5      100     0.000     0.000     0.000     0.000      107        0       42       25       15        3        0    15.546       74     40.0    6.219   -9.900     1.86    0.000    0.000       26        9     2078  Maize_short_Chisinau_6June_NonOptimum_26_MPI.PRM
  Tot(99)        6        6     2079    244.8    405.0   1053.8   432.00      0.0    219.4     25.4     19.4      0.0    115.1       61    206.1    161.7      100     0.000     0.000     0.000     0.000      107        0       42       25       18        7        0    15.501       74     40.3    6.250   -9.900     1.95    0.000    0.000       26        9     2079  Maize_short_Chisinau_6June_NonOptimum_26_MPI.PRM
 Tot(100)        6        6     2080    126.1    472.9   1171.4   432.00      0.0    124.6      1.5      0.0      0.0    101.8       47    226.4    177.0       90     0.000     0.000     0.000     0.000      107        0       42       25       15       12        8    13.811       63     40.4    5.574   -9.900     1.70    0.000    0.000       26        9     2080  Maize_short_Chisinau_6June_NonOptimum_26_MPI.PRM
 Tot(101)        6        6     2081    194.1    462.4   1163.4   431.00      0.0    174.3     19.8     26.9      0.0     97.4       49    229.6    179.3       91     0.000     0.000     0.000     0.000      107        0       42       25       16       11        8    13.919       65     40.4    5.618   -9.900     1.72    0.000    0.000       26        9     2081  Maize_short_Chisinau_6June_NonOptimum_26_MPI.PRM
 Tot(102)        6        6     2082     83.5    509.2   1226.0   431.00      0.0     83.5      0.0      0.0      0.0     89.4       33    189.7    150.3       81     0.000     0.000     0.000     0.000      107        0       42       25       13       24       16    10.372       47     40.5    4.196   -9.900     1.50    0.000    0.000       26        9     2082  Maize_short_Chisinau_6June_NonOptimum_26_MPI.PRM
 Tot(103)        6        6     2083    128.7    506.4   1213.8   430.00      0.0    128.4      0.3      0.0      0.0    121.0       48    216.0    169.3       86     0.000     0.000     0.000     0.000      107        0       42       25       11       17       13    12.336       56     40.5    4.999   -9.900     1.48    0.000    0.000       26        9     2083  Maize_short_Chisinau_6June_NonOptimum_26_MPI.PRM
 Tot(104)        6        6     2084    291.0    412.4   1095.6   429.00      0.0    257.0     34.0     31.2      0.0    119.4       67    223.9    174.4      100     0.000     0.000     0.000     0.000      107        0       42       25       18        7        0    15.151       75     40.4    6.123   -9.900     1.78    0.000    0.000       26        9     2084  Maize_short_Chisinau_6June_NonOptimum_26_MPI.PRM
 Tot(105)        6        6     2085    147.1    454.0   1091.2   429.00      0.0    145.2      1.9      0.0      0.0     82.3       37    216.8    167.6      100     0.000     0.000     0.000     0.000      107        0       42       25       19        5        0    14.340       74     40.2    5.759   -9.900     1.93    0.000    0.000       26        9     2085  Maize_short_Chisinau_6June_NonOptimum_26_MPI.PRM
 Tot(106)        6        6     2086    174.6    447.9   1125.6   428.00      0.0    165.9      8.7      8.2      0.0    120.3       62    203.0    160.1       85     0.000     0.000     0.000     0.000      107        0       42       25       18       14       11    11.450       59     40.6    4.652   -9.900     1.44    0.000    0.000       26        9     2086  Maize_short_Chisinau_6June_NonOptimum_26_MPI.PRM
 Tot(107)        6        6     2087    157.1    467.8   1197.8   428.00      0.0    153.6      3.5      3.8      0.0     89.3       39    226.1    175.3       98     0.000     0.000     0.000     0.000      107        0       42       25       11        6        1    15.511       72     40.2    6.232   -9.900     1.98    0.000    0.000       26        9     2087  Maize_short_Chisinau_6June_NonOptimum_26_MPI.PRM
 Tot(108)        6        6     2088     79.2    545.1   1330.3   427.00      0.0     76.8      2.4      3.2      0.0     79.5       29    211.2    166.1       80     0.000     0.000     0.000     0.000      105        0       42       25        7       13       19    11.243       49     39.7    4.467   -9.900     1.54    0.000    0.000       26        9     2088  Maize_short_Chisinau_6June_NonOptimum_26_MPI.PRM
 Tot(109)        6        6     2089    236.3    414.3   1018.6   427.00      0.0    218.6     17.7     30.8      0.0    100.1       56    214.9    165.7      100     0.000     0.000     0.000     0.000      107        0       42       25       22        2        0    14.446       75     40.1    5.794   -9.900     1.84    0.000    0.000       26        9     2089  Maize_short_Chisinau_6June_NonOptimum_26_MPI.PRM
 Tot(110)        6        6     2090    183.4    450.5   1036.2   426.00      0.0    180.4      3.0      1.2      0.0    102.1       47    205.8    161.0      100     0.000     0.000     0.000     0.000      107        0       42       25       22        6        0    13.423       74     40.2    5.397   -9.900     1.75    0.000    0.000       26        9     2090  Maize_short_Chisinau_6June_NonOptimum_26_MPI.PRM
 Tot(111)        6        6     2091    232.3    519.3   1347.1   425.00      0.0    217.9     14.4     27.6      0.0    134.7       55    242.1    189.8       87     0.000     0.000     0.000     0.000      107        0       42       25        8       11        8    14.084       61     40.3    5.679   -9.900     1.51    0.000    0.000       26        9     2091  Maize_short_Chisinau_6June_NonOptimum_26_MPI.PRM
 Tot(112)        6        6     2092    242.7    405.2    997.5   425.00      0.0    221.9     20.8      0.0      0.0     97.2       45    163.9    128.9      100     0.000     0.000     0.000     0.000      107        0       42       25       26        9        0    12.263       74     40.3    4.947   -9.900     1.89    0.000    0.000       26        9     2092  Maize_short_Chisinau_6June_NonOptimum_26_MPI.PRM
 Tot(113)        6        6     2093    279.2    424.4   1035.2   424.00      0.0    251.5     27.7      1.7      0.0     99.3       47    195.3    152.2      100     0.000     0.000     0.000     0.000      107        0       42       25       23        4        0    13.262       74     40.1    5.321   -9.900     1.81    0.000    0.000       26        9     2093  Maize_short_Chisinau_6June_NonOptimum_26_MPI.PRM
 Tot(114)        6        6     2094    148.4    566.0   1254.2   424.00      0.0    144.6      3.8      4.0      0.0    109.5       38    215.1    170.8       78     0.000     0.000     0.000     0.000      107        0       42       25       15       26       13    10.197       50     40.5    4.128   -9.900     1.27    0.000    0.000       26        9     2094  Maize_short_Chisinau_6June_NonOptimum_26_MPI.PRM
 Tot(115)        6        6     2095    139.3    509.6   1201.4   423.00      0.0    139.1      0.2      0.0      0.0     94.4       33    210.3    165.6      100     0.000     0.000     0.000     0.000      107        0       42       25       19       15        0    13.237       70     40.5    5.356   -9.900     1.76    0.000    0.000       26        9     2095  Maize_short_Chisinau_6June_NonOptimum_26_MPI.PRM
 Tot(116)        6        6     2096    106.8    554.9   1378.0   423.00      0.0    106.5      0.3      0.0      0.0     90.7       31    218.1    173.2       82     0.000     0.000     0.000     0.000      107        0       42       25        7       28       13    11.416       50     40.6    4.634   -9.900     1.50    0.000    0.000       26        9     2096  Maize_short_Chisinau_6June_NonOptimum_26_MPI.PRM
 Tot(117)        6        6     2097    169.6    441.9   1171.8   422.00      0.0    165.9      3.7      9.7      0.0     99.2       56    253.9    197.5       97     0.000     0.000     0.000     0.000      107        0       42       25       13        6        3    15.869       72     40.3    6.401   -9.900     1.81    0.000    0.000       26        9     2097  Maize_short_Chisinau_6June_NonOptimum_26_MPI.PRM
 Tot(118)        6        6     2098    178.8    454.8   1147.4   422.00      0.0    175.1      3.7      1.7      0.0    101.9       50    234.1    180.8      100     0.000     0.000     0.000     0.000      107        0       42       25       14        1        0    15.600       75     40.0    6.244   -9.900     1.86    0.000    0.000       26        9     2098  Maize_short_Chisinau_6June_NonOptimum_26_MPI.PRM
 Tot(119)        6        6     2099    197.6    398.6   1005.6   421.00      0.0    186.2     11.4     33.7      0.0    101.4       63    215.0    166.5      100     0.000     0.000     0.000     0.000      107        0       42       25       22        5        0    15.087       75     40.2    6.065   -9.900     1.92    0.000    0.000       26        9     2099  Maize_short_Chisinau_6June_NonOptimum_26_MPI.PRM
