AquaCrop 7.0 (August 2022) - Output created on (date) : 23-11-2022   at (time) : 13:02:06

    RunNr     Day1   Month1    Year1     Rain      ETo       GD     CO2      Irri   Infilt   Runoff    Drain   Upflow        E     E/Ex       Tr      TrW   Tr/Trx    SaltIn   SaltOut    SaltUp  SaltProf     Cycle   SaltStr  FertStr  WeedStr  TempStr   ExpStr   StoStr  BioMass  Brelative   HI    Y(dry)  Y(fresh)    WPet      Bin     Bout     DayN   MonthN    YearN
                                           mm       mm  degC.day    ppm        mm       mm       mm       mm       mm       mm        %       mm       mm        %    ton/ha    ton/ha    ton/ha    ton/ha      days       %        %        %        %        %        %    ton/ha        %       %    ton/ha   ton/ha    kg/m3   ton/ha   ton/ha
   Tot(1)       22        5     1981    131.8    514.9   1295.7   340.11      0.0    131.0      0.8      0.0      0.0    103.1       43    242.3    241.9       87     0.000     0.000     0.000     0.000      107        0        0        0        8        8       10    16.780       78     40.1    6.732   -9.900     1.95    0.000    0.000       11        9     1981  Maize_short_Cahul_22May_Optimum_85_MOHC.PRM
   Tot(2)       22        5     1982    240.1    482.2   1316.7   341.22      0.0    239.1      1.0      0.0      0.0    135.6       61    275.4    273.7      100     0.000     0.000     0.000     0.000      107        0        0        0        5        3        0    21.610       96     40.1    8.659   -9.900     2.11    0.000    0.000       11        9     1982  Maize_short_Cahul_22May_Optimum_85_MOHC.PRM
   Tot(3)       22        5     1983    279.5    484.1   1295.1   342.84      0.0    252.0     27.5     32.8      0.0    123.2       58    279.7    279.7      100     0.000     0.000     0.000     0.000      107        0        0        0        7        5        0    20.958       95     40.2    8.422   -9.900     2.09    0.000    0.000       11        9     1983  Maize_short_Cahul_22May_Optimum_85_MOHC.PRM
   Tot(4)       22        5     1984    165.7    468.8   1167.8   344.40      0.0    165.3      0.4      0.0      0.0    136.8       66    242.9    244.6       92     0.000     0.000     0.000     0.000      107        0        0        0       11        5        7    18.697       87     40.1    7.492   -9.900     1.97    0.000    0.000       11        9     1984  Maize_short_Cahul_22May_Optimum_85_MOHC.PRM
   Tot(5)       22        5     1985    327.9    481.2   1222.6   345.87      0.0    296.5     31.4     47.4      0.0    134.3       67    278.4    277.7       98     0.000     0.000     0.000     0.000      107        0        0        0       12        3        1    20.283       95     40.1    8.143   -9.900     1.97    0.000    0.000       11        9     1985  Maize_short_Cahul_22May_Optimum_85_MOHC.PRM
   Tot(6)       22        5     1986    159.8    540.0   1341.9   347.19      0.0    158.4      1.4      1.2      0.0    122.8       49    246.5    247.1       84     0.000     0.000     0.000     0.000      107        0        0        0        6       11       12    16.625       75     40.0    6.653   -9.900     1.80    0.000    0.000       11        9     1986  Maize_short_Cahul_22May_Optimum_85_MOHC.PRM
   Tot(7)       22        5     1987    237.0    495.2   1234.6   348.98      0.0    226.5     10.5      5.8      0.0    111.8       54    293.7    292.6      100     0.000     0.000     0.000     0.000      107        0        0        0       10        4        0    20.802       96     40.2    8.362   -9.900     2.06    0.000    0.000       11        9     1987  Maize_short_Cahul_22May_Optimum_85_MOHC.PRM
   Tot(8)       22        5     1988    215.6    496.5   1322.9   351.45      0.0    198.9     16.7     20.3      0.0    136.2       59    210.5    212.3       80     0.000     0.000     0.000     0.000      107        0        0        0        8       15       16    13.431       61     40.0    5.376   -9.900     1.55    0.000    0.000       11        9     1988  Maize_short_Cahul_22May_Optimum_85_MOHC.PRM
   Tot(9)       22        5     1989    278.3    464.8   1227.8   352.89      0.0    269.4      8.9      0.8      0.0    130.8       68    277.9    276.5       98     0.000     0.000     0.000     0.000      107        0        0        0       11        5        1    20.634       94     40.1    8.276   -9.900     2.02    0.000    0.000       11        9     1989  Maize_short_Cahul_22May_Optimum_85_MOHC.PRM
  Tot(10)       22        5     1990    134.6    519.4   1222.9   354.16      0.0    133.4      1.2      4.2      0.0    134.3       52    210.8    212.4       82     0.000     0.000     0.000     0.000      105        0        0        0       11       20       18    13.755       62     40.0    5.508   -9.900     1.60    0.000    0.000       11        9     1990  Maize_short_Cahul_22May_Optimum_85_MOHC.PRM
  Tot(11)       22        5     1991    339.7    442.2   1261.6   355.48      0.0    294.4     45.3     75.9      0.0    115.8       67    276.1    274.2      100     0.000     0.000     0.000     0.000      107        0        0        0       10        2        0    21.539       97     40.1    8.636   -9.900     2.20    0.000    0.000       11        9     1991  Maize_short_Cahul_22May_Optimum_85_MOHC.PRM
  Tot(12)       22        5     1992    172.1    523.4   1310.7   356.27      0.0    171.3      0.8      0.0      0.0    144.3       66    238.3    239.0       79     0.000     0.000     0.000     0.000      107        0        0        0        8       14       15    15.310       68     39.8    6.099   -9.900     1.59    0.000    0.000       11        9     1992  Maize_short_Cahul_22May_Optimum_85_MOHC.PRM
  Tot(13)       22        5     1993    184.6    515.2   1213.1   356.95      0.0    177.7      6.9     14.6      0.0    114.5       50    251.4    250.8       90     0.000     0.000     0.000     0.000      107        0        0        0       12        7        7    17.190       83     40.1    6.897   -9.900     1.88    0.000    0.000       11        9     1993  Maize_short_Cahul_22May_Optimum_85_MOHC.PRM
  Tot(14)       22        5     1994    229.2    520.8   1387.8   358.63      0.0    210.6     18.6     40.3      0.0    104.3       44    270.1    270.5       90     0.000     0.000     0.000     0.000      107        0        0        0        7        9        8    18.841       81     40.2    7.580   -9.900     2.02    0.000    0.000       11        9     1994  Maize_short_Cahul_22May_Optimum_85_MOHC.PRM
  Tot(15)       22        5     1995    194.2    524.5   1401.1   360.62      0.0    189.8      4.4      0.3      0.0    116.9       46    243.9    243.6       88     0.000     0.000     0.000     0.000      107        0        0        0        3       13        9    16.803       74     40.3    6.767   -9.900     1.88    0.000    0.000       11        9     1995  Maize_short_Cahul_22May_Optimum_85_MOHC.PRM
  Tot(16)       22        5     1996    152.9    537.6   1282.2   362.37      0.0    143.3      9.6      0.4      0.0     97.4       31    204.1    205.2       87     0.000     0.000     0.000     0.000      107        0        0        0        9       27        7    14.129       65     40.7    5.751   -9.900     1.91    0.000    0.000       11        9     1996  Maize_short_Cahul_22May_Optimum_85_MOHC.PRM
  Tot(17)       22        5     1997    432.8    444.0   1221.9   363.47      0.0    383.5     49.3     17.3      0.0    148.6       78    259.9    259.2      100     0.000     0.000     0.000     0.000      107        0        0        0       10        1        0    21.660       97     40.0    8.668   -9.900     2.12    0.000    0.000       11        9     1997  Maize_short_Cahul_22May_Optimum_85_MOHC.PRM
  Tot(18)       22        5     1998    180.5    509.6   1309.0   366.50      0.0    177.7      2.8      0.0      0.0    130.0       58    239.8    239.7       85     0.000     0.000     0.000     0.000      107        0        0        0        8        8       11    15.759       73     40.0    6.303   -9.900     1.70    0.000    0.000       11        9     1998  Maize_short_Cahul_22May_Optimum_85_MOHC.PRM
  Tot(19)       22        5     1999    308.1    540.3   1455.6   368.14      0.0    295.8     12.3     14.0      0.0    143.6       56    302.8    301.2       99     0.000     0.000     0.000     0.000      107        0        0        0        3       11        1    21.267       92     40.6    8.645   -9.900     1.94    0.000    0.000       11        9     1999  Maize_short_Cahul_22May_Optimum_85_MOHC.PRM
  Tot(20)       22        5     2000    130.9    589.8   1344.8   369.41      0.0    120.7     10.2      0.0      0.0     97.4       28    199.7    202.3       79     0.000     0.000     0.000     0.000      107        0        0        0        7       21       16    12.156       54     40.0    4.866   -9.900     1.64    0.000    0.000       11        9     2000  Maize_short_Cahul_22May_Optimum_85_MOHC.PRM
  Tot(21)       22        5     2001    279.5    543.9   1369.9   371.07      0.0    230.6     48.9     24.2      0.0    149.2       55    207.6    207.9       77     0.000     0.000     0.000     0.000       99        0        0        0        6       18       20    12.713       55     35.9    4.565   -9.900     1.32    0.000    0.000       11        9     2001  Maize_short_Cahul_22May_Optimum_85_MOHC.PRM
  Tot(22)       22        5     2002    292.1    558.8   1450.8   373.16      0.0    255.3     36.8      0.0      0.0    114.8       41    303.8    301.7      100     0.000     0.000     0.000     0.000      107        0        0        0        4       15        0    20.987       88     40.0    8.396   -9.900     2.01    0.000    0.000       11        9     2002  Maize_short_Cahul_22May_Optimum_85_MOHC.PRM
  Tot(23)       22        5     2003    116.6    575.5   1394.8   375.80      0.0    116.5      0.1      0.0      0.0    105.7       34    221.9    223.7       82     0.000     0.000     0.000     0.000      107        0        0        0        6       17       16    14.768       65     39.7    5.864   -9.900     1.79    0.000    0.000       11        9     2003  Maize_short_Cahul_22May_Optimum_85_MOHC.PRM
  Tot(24)       22        5     2004    264.5    517.1   1270.8   377.49      0.0    258.7      5.8      1.7      0.0    127.4       55    294.4    294.3      100     0.000     0.000     0.000     0.000      107        0        0        0        9        6        0    21.236       95     40.2    8.535   -9.900     2.02    0.000    0.000       11        9     2004  Maize_short_Cahul_22May_Optimum_85_MOHC.PRM
  Tot(25)       22        5     2005    340.5    530.1   1378.5   379.80      0.0    324.9     15.6      7.2      0.0    155.4       67    317.3    314.7      100     0.000     0.000     0.000     0.000      107        0        0        0        5        2        0    22.748       97     40.0    9.107   -9.900     1.93    0.000    0.000       11        9     2005  Maize_short_Cahul_22May_Optimum_85_MOHC.PRM
  Tot(26)       22        5     2006    165.3    572.9   1356.3   381.90      0.0    162.9      2.4      0.0      0.0    124.3       41    230.5    232.4       82     0.000     0.000     0.000     0.000      107        0        0        0        7       27       12    14.781       64     40.6    6.000   -9.900     1.69    0.000    0.000       11        9     2006  Maize_short_Cahul_22May_Optimum_85_MOHC.PRM
  Tot(27)       22        5     2007    154.6    656.0   1505.6   383.77      0.0    153.3      1.3      0.0      0.0    127.0       32    225.1    224.7       80     0.000     0.000     0.000     0.000      107        0        0        0        3       31       12    12.953       56     40.5    5.250   -9.900     1.49    0.000    0.000       11        9     2007  Maize_short_Cahul_22May_Optimum_85_MOHC.PRM
  Tot(28)       22        5     2008    135.9    609.6   1430.9   385.59      0.0    135.2      0.7      0.6      0.0    124.8       39    228.9    230.0       78     0.000     0.000     0.000     0.000      107        0        0        0        3       20       19    13.684       58     39.6    5.425   -9.900     1.53    0.000    0.000       11        9     2008  Maize_short_Cahul_22May_Optimum_85_MOHC.PRM
  Tot(29)       22        5     2009    193.1    608.5   1428.8   387.37      0.0    186.0      7.1      0.0      0.0    132.2       42    241.1    240.7       81     0.000     0.000     0.000     0.000      107        0        0        0        4       18       16    14.136       60     40.1    5.670   -9.900     1.52    0.000    0.000       11        9     2009  Maize_short_Cahul_22May_Optimum_85_MOHC.PRM
  Tot(30)       22        5     2010    262.4    544.9   1456.8   389.85      0.0    244.4     18.0     23.9      0.0    128.7       53    284.3    283.2       90     0.000     0.000     0.000     0.000      107        0        0        0        5        4        7    19.216       83     39.8    7.647   -9.900     1.85    0.000    0.000       11        9     2010  Maize_short_Cahul_22May_Optimum_85_MOHC.PRM
  Tot(31)       22        5     2011    160.8    575.7   1434.7   391.63      0.0    157.7      3.1      5.8      0.0    126.0       47    245.7    247.2       78     0.000     0.000     0.000     0.000      107        0        0        0        3       14       18    15.775       67     39.7    6.267   -9.900     1.69    0.000    0.000       11        9     2011  Maize_short_Cahul_22May_Optimum_85_MOHC.PRM
  Tot(32)       22        5     2012    196.3    639.5   1494.0   393.82      0.0    189.7      6.6      8.8      0.0    148.0       47    246.7    246.5       76     0.000     0.000     0.000     0.000      107        0        0        0        3       24       19    13.737       58     40.2    5.516   -9.900     1.40    0.000    0.000       11        9     2012  Maize_short_Cahul_22May_Optimum_85_MOHC.PRM
  Tot(33)       22        5     2013    252.7    563.0   1428.9   396.48      0.0    239.0     13.7     14.7      0.0    144.5       57    275.7    274.9       86     0.000     0.000     0.000     0.000      107        0        0        0        3        8       10    18.220       77     40.0    7.293   -9.900     1.74    0.000    0.000       11        9     2013  Maize_short_Cahul_22May_Optimum_85_MOHC.PRM
  Tot(34)       22        5     2014    196.3    573.6   1463.6   398.55      0.0    193.6      2.7      4.1      0.0    147.2       60    268.2    269.0       80     0.000     0.000     0.000     0.000      107        0        0        0        3       10       16    17.068       71     39.6    6.758   -9.900     1.63    0.000    0.000       11        9     2014  Maize_short_Cahul_22May_Optimum_85_MOHC.PRM
  Tot(35)       22        5     2015    138.9    636.7   1471.6   402.00      0.0    136.7      2.2      0.0      0.0    116.3       36    235.7    235.8       74     0.000     0.000     0.000     0.000      107        0        0        0        4       20       19    13.888       58     40.0    5.549   -9.900     1.58    0.000    0.000       11        9     2015  Maize_short_Cahul_22May_Optimum_85_MOHC.PRM
  Tot(36)       22        5     2016    164.9    587.5   1485.2   404.00      0.0    161.0      3.9      8.4      0.0    156.6       54    214.7    215.0       73     0.000     0.000     0.000     0.000      107        0        0        0        3       24       23    12.853       53     39.8    5.118   -9.900     1.38    0.000    0.000       11        9     2016  Maize_short_Cahul_22May_Optimum_85_MOHC.PRM
  Tot(37)       22        5     2017    244.3    575.3   1442.4   407.00      0.0    217.3     27.0      1.4      0.0    121.3       49    311.7    310.9       91     0.000     0.000     0.000     0.000      107        0        0        0        3        6        9    19.945       84     39.9    7.961   -9.900     1.84    0.000    0.000       11        9     2017  Maize_short_Cahul_22May_Optimum_85_MOHC.PRM
  Tot(38)       22        5     2018    162.1    570.8   1538.6   410.00      0.0    157.2      4.9      0.0      0.0     92.0       33    276.6    277.0       88     0.000     0.000     0.000     0.000      107        0        0        0        2        8       10    19.136       79     39.6    7.587   -9.900     2.06    0.000    0.000       11        9     2018  Maize_short_Cahul_22May_Optimum_85_MOHC.PRM
  Tot(39)       22        5     2019    162.8    617.9   1528.8   413.00      0.0    161.5      1.3      0.0      0.0    164.0       51    219.7    220.3       76     0.000     0.000     0.000     0.000      105        0        0        0        1       20       21    13.858       57     39.4    5.460   -9.900     1.42    0.000    0.000       11        9     2019  Maize_short_Cahul_22May_Optimum_85_MOHC.PRM
  Tot(40)       22        5     2020     60.0    697.2   1596.2   416.00      0.0     59.7      0.3      0.0      0.0     91.0       20    173.3    173.3       75     0.000     0.000     0.000     0.000       90        0        0        0        2       33       19     8.929       37     26.9    2.406   -9.900     0.92    0.000    0.000       11        9     2020  Maize_short_Cahul_22May_Optimum_85_MOHC.PRM
  Tot(41)       22        5     2021     27.4    721.0   1620.9   419.00      0.0     27.4      0.0      0.0      0.0     66.4       13    161.5    161.5       78     0.000     0.000     0.000     0.000       92        0        0        0        1       36       17     8.294       34     29.2    2.420   -9.900     1.07    0.000    0.000       11        9     2021  Maize_short_Cahul_22May_Optimum_85_MOHC.PRM
  Tot(42)       22        5     2022     45.9    656.6   1560.9   422.00      0.0     45.2      0.7      0.0      0.0     77.0       19    175.7    175.7       73     0.000     0.000     0.000     0.000       90        0        0        0        3       29       20     9.443       39     12.7    1.203   -9.900     0.48    0.000    0.000       11        9     2022  Maize_short_Cahul_22May_Optimum_85_MOHC.PRM
  Tot(43)       22        5     2023    108.9    623.7   1473.7   425.00      0.0    108.9      0.0      0.0      0.0    124.0       33    170.5    170.5       73     0.000     0.000     0.000     0.000       90        0        0        0        2       32       20     8.879       38     27.0    2.393   -9.900     0.86    0.000    0.000       11        9     2023  Maize_short_Cahul_22May_Optimum_85_MOHC.PRM
  Tot(44)       22        5     2024     58.1    685.1   1622.6   428.00      0.0     57.3      0.8      2.2      0.0     91.7       22    166.2    166.2       72     0.000     0.000     0.000     0.000       88        0        0        0        1       30       20     8.989       37     24.8    2.228   -9.900     0.87    0.000    0.000       11        9     2024  Maize_short_Cahul_22May_Optimum_85_MOHC.PRM
  Tot(45)       22        5     2025    149.8    637.4   1539.9   431.00      0.0    146.4      3.4      3.0      0.0    150.9       45    203.4    203.4       70     0.000     0.000     0.000     0.000      107        0        0        0        3       26       26    11.353       47     39.5    4.490   -9.900     1.27    0.000    0.000       11        9     2025  Maize_short_Cahul_22May_Optimum_85_MOHC.PRM
  Tot(46)       22        5     2026    131.6    625.3   1533.6   435.00      0.0    123.0      8.6      8.3      0.0    108.3       29    169.5    169.5       71     0.000     0.000     0.000     0.000       91        0        0        0        4       29       20     9.612       40     27.8    2.672   -9.900     0.99    0.000    0.000       11        9     2026  Maize_short_Cahul_22May_Optimum_85_MOHC.PRM
  Tot(47)       22        5     2027    136.3    607.9   1571.2   438.00      0.0    135.9      0.4      0.0      0.0     97.0       32    247.1    246.2       77     0.000     0.000     0.000     0.000      107        0        0        0        2       19       17    15.268       62     39.5    6.036   -9.900     1.75    0.000    0.000       11        9     2027  Maize_short_Cahul_22May_Optimum_85_MOHC.PRM
  Tot(48)       22        5     2028     61.7    692.0   1553.2   442.00      0.0     61.7      0.0      0.0      0.0     94.3       22    164.4    165.2       73     0.000     0.000     0.000     0.000       85        0        0        0        5       34       20     8.125       33     21.8    1.774   -9.900     0.69    0.000    0.000       11        9     2028  Maize_short_Cahul_22May_Optimum_85_MOHC.PRM
  Tot(49)       22        5     2029    152.9    607.7   1569.1   445.00      0.0    149.4      3.5      5.8      0.0    152.9       47    208.8    208.8       75     0.000     0.000     0.000     0.000      100        0        0        0        1       27       22    12.383       50     36.8    4.552   -9.900     1.27    0.000    0.000       11        9     2029  Maize_short_Cahul_22May_Optimum_85_MOHC.PRM
  Tot(50)       22        5     2030    198.7    598.7   1519.6   449.00      0.0    164.9     33.8     32.7      0.0    138.0       45    213.2    213.2       76     0.000     0.000     0.000     0.000      102        0        0        0        3       26       22    12.830       52     38.4    4.928   -9.900     1.41    0.000    0.000       11        9     2030  Maize_short_Cahul_22May_Optimum_85_MOHC.PRM
  Tot(51)       22        5     2031     54.0    669.0   1651.8   452.00      0.0     53.9      0.1      0.0      0.0     83.3       20    181.0    181.0       76     0.000     0.000     0.000     0.000       93        0        0        0        1       30       19    10.078       41     30.2    3.040   -9.900     1.16    0.000    0.000       11        9     2031  Maize_short_Cahul_22May_Optimum_85_MOHC.PRM
  Tot(52)       22        5     2032    196.6    570.8   1473.4   456.00      0.0    171.8     24.8     33.0      0.0     97.9       32    241.9    240.8       87     0.000     0.000     0.000     0.000      107        0        0        0        5       33        9    15.807       65     40.8    6.454   -9.900     1.90    0.000    0.000       11        9     2032  Maize_short_Cahul_22May_Optimum_85_MOHC.PRM
  Tot(53)       22        5     2033    123.1    673.5   1663.7   460.00      0.0    116.6      6.5     10.2      0.0    130.8       31    174.8    175.9       75     0.000     0.000     0.000     0.000       92        0        0        0        0       30       19    10.104       41     29.0    2.931   -9.900     1.03    0.000    0.000       11        9     2033  Maize_short_Cahul_22May_Optimum_85_MOHC.PRM
  Tot(54)       22        5     2034     58.1    764.9   1698.6   464.00      0.0     56.9      1.2      1.4      0.0     91.1       17    156.8    156.8       71     0.000     0.000     0.000     0.000       83        0        0        0        2       36       20     7.185       29     20.3    1.457   -9.900     0.59    0.000    0.000       11        9     2034  Maize_short_Cahul_22May_Optimum_85_MOHC.PRM
  Tot(55)       22        5     2035    100.3    652.2   1587.0   468.00      0.0     95.8      4.5     11.3      0.0    100.6       26    170.7    170.7       72     0.000     0.000     0.000     0.000       87        0        0        0        6       30       21     9.105       37     23.7    2.161   -9.900     0.81    0.000    0.000       11        9     2035  Maize_short_Cahul_22May_Optimum_85_MOHC.PRM
  Tot(56)       22        5     2036     38.7    735.9   1747.1   472.00      0.0     37.7      1.0      1.0      0.0     75.6       15    156.3    156.3       74     0.000     0.000     0.000     0.000       87        0        0        0        0       37       19     7.586       30     24.0    1.817   -9.900     0.79    0.000    0.000       11        9     2036  Maize_short_Cahul_22May_Optimum_85_MOHC.PRM
  Tot(57)       22        5     2037    138.2    585.7   1438.1   476.00      0.0    124.8     13.4      0.0      0.0     93.5       28    216.9    215.7       84     0.000     0.000     0.000     0.000      107        0        0        0        5       32        9    13.748       56     40.7    5.589   -9.900     1.80    0.000    0.000       11        9     2037  Maize_short_Cahul_22May_Optimum_85_MOHC.PRM
  Tot(58)       22        5     2038    118.7    626.1   1661.7   481.00      0.0    116.1      2.6      4.1      0.0    120.3       37    207.2    208.4       73     0.000     0.000     0.000     0.000       95        0        0        0        2       23       22    11.589       46     31.6    3.662   -9.900     1.13    0.000    0.000       11        9     2038  Maize_short_Cahul_22May_Optimum_85_MOHC.PRM
  Tot(59)       22        5     2039     75.9    722.9   1734.7   485.00      0.0     75.6      0.3      0.0      0.0    109.4       22    162.1    162.1       75     0.000     0.000     0.000     0.000       87        0        0        0        1       36       19     8.160       33     23.0    1.880   -9.900     0.71    0.000    0.000       11        9     2039  Maize_short_Cahul_22May_Optimum_85_MOHC.PRM
  Tot(60)       22        5     2040     25.6    758.3   1757.9   489.00      0.0     25.6      0.0      0.0      0.0     68.2       12    151.4    151.4       81     0.000     0.000     0.000     0.000       93        0        0        0        0       40       16     7.508       30     29.4    2.205   -9.900     1.01    0.000    0.000       11        9     2040  Maize_short_Cahul_22May_Optimum_85_MOHC.PRM
  Tot(61)       22        5     2041     65.7    781.6   1704.4   494.00      0.0     64.8      0.9      0.0      0.0     97.3       19    162.3    162.3       69     0.000     0.000     0.000     0.000       83        0        0        0        2       34       21     7.472       30      5.3    0.394   -9.900     0.15    0.000    0.000       11        9     2041  Maize_short_Cahul_22May_Optimum_85_MOHC.PRM
  Tot(62)       22        5     2042    202.3    633.8   1564.3   499.00      0.0    140.5     61.8     58.2      0.0     98.2       28    195.1    195.1       75     0.000     0.000     0.000     0.000       93        0        0        0        1       24       20    11.123       45     29.8    3.310   -9.900     1.15    0.000    0.000       11        9     2042  Maize_short_Cahul_22May_Optimum_85_MOHC.PRM
  Tot(63)       22        5     2043     26.8    850.3   1802.1   504.00      0.0     26.8      0.0      0.0      0.0     68.3       10    141.2    141.2       81     0.000     0.000     0.000     0.000       94        0        0        0        0       45       16     5.863       23     22.7    1.331   -9.900     0.69    0.000    0.000       11        9     2043  Maize_short_Cahul_22May_Optimum_85_MOHC.PRM
  Tot(64)       22        5     2044     75.4    659.4   1660.9   508.00      0.0     75.3      0.1      0.8      0.0    103.3       27    178.1    178.1       73     0.000     0.000     0.000     0.000       89        0        0        0        1       27       21     9.810       39     25.7    2.523   -9.900     0.91    0.000    0.000       11        9     2044  Maize_short_Cahul_22May_Optimum_85_MOHC.PRM
  Tot(65)       22        5     2045    149.7    645.6   1542.2   513.00      0.0    136.4     13.3      0.0      0.0    122.0       32    179.1    178.8       72     0.000     0.000     0.000     0.000      107        0        0        0        2       30       15     9.867       40     40.1    3.954   -9.900     1.31    0.000    0.000       11        9     2045  Maize_short_Cahul_22May_Optimum_85_MOHC.PRM
  Tot(66)       22        5     2046    129.8    656.8   1644.1   519.00      0.0    113.6     16.2     24.0      0.0    114.7       29    175.1    175.4       73     0.000     0.000     0.000     0.000       89        0        0        0        1       30       20     9.499       38     25.9    2.461   -9.900     0.87    0.000    0.000       11        9     2046  Maize_short_Cahul_22May_Optimum_85_MOHC.PRM
  Tot(67)       22        5     2047     35.4    758.5   1758.0   524.00      0.0     35.1      0.3      0.0      0.0     76.7       14    150.1    150.1       77     0.000     0.000     0.000     0.000       88        0        0        0        0       39       18     7.218       29     22.2    1.604   -9.900     0.73    0.000    0.000       11        9     2047  Maize_short_Cahul_22May_Optimum_85_MOHC.PRM
  Tot(68)       22        5     2048     69.0    686.1   1715.4   529.00      0.0     65.0      4.0      1.7      0.0     92.2       22    173.6    173.6       73     0.000     0.000     0.000     0.000       88        0        0        0        0       30       20     9.486       38     24.8    2.355   -9.900     0.89    0.000    0.000       11        9     2048  Maize_short_Cahul_22May_Optimum_85_MOHC.PRM
  Tot(69)       22        5     2049     77.3    725.6   1646.9   535.00      0.0     76.9      0.4      0.0      0.0     99.7       21    164.0    164.0       72     0.000     0.000     0.000     0.000       84        0        0        0        1       34       20     7.848       32     12.2    0.959   -9.900     0.39    0.000    0.000       11        9     2049  Maize_short_Cahul_22May_Optimum_85_MOHC.PRM
  Tot(70)       22        5     2050     80.8    682.4   1729.0   541.00      0.0     79.9      0.9      2.3      0.0     97.8       24    190.9    190.9       76     0.000     0.000     0.000     0.000       94        0        0        0        1       29       19    10.958       43     30.9    3.384   -9.900     1.18    0.000    0.000       11        9     2050  Maize_short_Cahul_22May_Optimum_85_MOHC.PRM
  Tot(71)       22        5     2051     41.6    676.6   1637.1   546.00      0.0     38.4      3.2      3.1      0.0     70.2       17    162.3    162.3       73     0.000     0.000     0.000     0.000       86        0        0        0        2       33       20     8.462       34      4.7    0.398   -9.900     0.17    0.000    0.000       11        9     2051  Maize_short_Cahul_22May_Optimum_85_MOHC.PRM
  Tot(72)       22        5     2052    103.0    717.5   1659.9   552.00      0.0    102.6      0.4      0.0      0.0    126.9       27    159.5    159.5       73     0.000     0.000     0.000     0.000       86        0        0        0        1       34       20     8.111       32     22.9    1.857   -9.900     0.69    0.000    0.000       11        9     2052  Maize_short_Cahul_22May_Optimum_85_MOHC.PRM
  Tot(73)       22        5     2053    121.2    667.3   1715.7   558.00      0.0    116.9      4.3      6.4      0.0    127.4       33    173.6    173.6       72     0.000     0.000     0.000     0.000       87        0        0        0        1       29       21     9.357       37     23.8    2.223   -9.900     0.77    0.000    0.000       11        9     2053  Maize_short_Cahul_22May_Optimum_85_MOHC.PRM
  Tot(74)       22        5     2054    154.4    661.7   1710.1   564.00      0.0    141.2     13.2     24.3      0.0    118.2       29    166.1    166.1       71     0.000     0.000     0.000     0.000       89        0        0        0        1       33       20     8.554       34     17.2    1.473   -9.900     0.55    0.000    0.000       11        9     2054  Maize_short_Cahul_22May_Optimum_85_MOHC.PRM
  Tot(75)       22        5     2055     63.7    716.6   1677.0   571.00      0.0     63.5      0.2      0.0      0.0     95.4       21    162.6    162.6       72     0.000     0.000     0.000     0.000       84        0        0        0        2       33       20     8.121       32     20.8    1.691   -9.900     0.68    0.000    0.000       11        9     2055  Maize_short_Cahul_22May_Optimum_85_MOHC.PRM
  Tot(76)       22        5     2056    133.7    628.7   1619.9   577.00      0.0    121.2     12.5     17.3      0.0    110.4       35    200.6    200.6       70     0.000     0.000     0.000     0.000      107        0        0        0        2       24       24    11.622       46     27.1    3.145   -9.900     1.01    0.000    0.000       11        9     2056  Maize_short_Cahul_22May_Optimum_85_MOHC.PRM
  Tot(77)       22        5     2057    168.3    643.2   1633.6   583.00      0.0    163.4      4.9      1.7      0.0    140.3       41    205.7    205.7       76     0.000     0.000     0.000     0.000       94        0        0        0        1       21       20    11.935       47     30.7    3.668   -9.900     1.09    0.000    0.000       11        9     2057  Maize_short_Cahul_22May_Optimum_85_MOHC.PRM
  Tot(78)       22        5     2058     70.2    760.0   1804.9   590.00      0.0     68.1      2.1      7.5      0.0     94.7       17    153.4    153.4       77     0.000     0.000     0.000     0.000       87        0        0        0        2       38       18     7.511       30     23.2    1.739   -9.900     0.72    0.000    0.000       11        9     2058  Maize_short_Cahul_22May_Optimum_85_MOHC.PRM
  Tot(79)       22        5     2059    120.0    638.7   1746.6   597.00      0.0    120.0      0.0      0.0      0.0    119.1       37    218.3    218.3       75     0.000     0.000     0.000     0.000       98        0        0        0        1       17       20    13.145       52     34.4    4.526   -9.900     1.36    0.000    0.000       11        9     2059  Maize_short_Cahul_22May_Optimum_85_MOHC.PRM
  Tot(80)       22        5     2060     81.4    826.8   1891.5   604.00      0.0     81.3      0.1      0.0      0.0    109.1       17    146.9    146.9       77     0.000     0.000     0.000     0.000       85        0        0        0        0       40       17     6.630       26     15.9    1.052   -9.900     0.43    0.000    0.000       11        9     2060  Maize_short_Cahul_22May_Optimum_85_MOHC.PRM
  Tot(81)       22        5     2061     38.0    721.4   1761.3   611.00      0.0     36.3      1.7      6.6      0.0     67.3       14    155.4    155.4       72     0.000     0.000     0.000     0.000       85        0        0        0        1       35       20     7.759       31      7.7    0.597   -9.900     0.28    0.000    0.000       11        9     2061  Maize_short_Cahul_22May_Optimum_85_MOHC.PRM
  Tot(82)       22        5     2062     40.3    757.9   1842.5   618.00      0.0     40.2      0.1      0.0      0.0     72.5       14    158.6    158.6       72     0.000     0.000     0.000     0.000       85        0        0        0        0       35       20     7.664       30     19.4    1.488   -9.900     0.69    0.000    0.000       11        9     2062  Maize_short_Cahul_22May_Optimum_85_MOHC.PRM
  Tot(83)       22        5     2063     52.1    669.3   1723.3   625.00      0.0     52.1      0.0      0.0      0.0     80.3       21    173.0    173.0       71     0.000     0.000     0.000     0.000       89        0        0        0        1       29       20     9.652       38     23.7    2.290   -9.900     0.93    0.000    0.000       11        9     2063  Maize_short_Cahul_22May_Optimum_85_MOHC.PRM
  Tot(84)       22        5     2064     65.8    753.7   1897.0   632.00      0.0     65.6      0.2      0.0      0.0     91.6       17    156.1    156.1       76     0.000     0.000     0.000     0.000       89        0        0        0        0       37       18     7.884       31     24.0    1.891   -9.900     0.82    0.000    0.000       11        9     2064  Maize_short_Cahul_22May_Optimum_85_MOHC.PRM
  Tot(85)       22        5     2065     33.9    657.0   1705.4   639.00      0.0     33.9      0.0      0.0      0.0     70.4       17    166.3    166.3       74     0.000     0.000     0.000     0.000       92        0        0        0        0       32       19     9.691       38     29.0    2.809   -9.900     1.20    0.000    0.000       11        9     2065  Maize_short_Cahul_22May_Optimum_85_MOHC.PRM
  Tot(86)       22        5     2066     18.7    750.8   1833.4   647.00      0.0     18.7      0.0      0.0      0.0     61.6       11    152.3    152.3       74     0.000     0.000     0.000     0.000       90        0        0        0        0       37       18     7.616       30     17.9    1.361   -9.900     0.64    0.000    0.000       11        9     2066  Maize_short_Cahul_22May_Optimum_85_MOHC.PRM
  Tot(87)       22        5     2067     81.2    767.7   1881.6   654.00      0.0     80.7      0.5      0.0      0.0    113.2       22    162.2    162.2       71     0.000     0.000     0.000     0.000       85        0        0        0        0       35       20     7.788       31      9.9    0.774   -9.900     0.29    0.000    0.000       11        9     2067  Maize_short_Cahul_22May_Optimum_85_MOHC.PRM
  Tot(88)       22        5     2068    111.6    695.0   1796.8   662.00      0.0    109.6      2.0      0.0      0.0    116.9       32    212.6    212.6       73     0.000     0.000     0.000     0.000       97        0        0        0        0       18       21    12.770       51     33.3    4.257   -9.900     1.30    0.000    0.000       11        9     2068  Maize_short_Cahul_22May_Optimum_85_MOHC.PRM
  Tot(89)       22        5     2069    123.3    679.6   1801.3   669.00      0.0    111.7     11.6     12.5      0.0    111.2       30    199.3    199.3       74     0.000     0.000     0.000     0.000       92        0        0        0        1       24       20    11.232       44     16.9    1.897   -9.900     0.62    0.000    0.000       11        9     2069  Maize_short_Cahul_22May_Optimum_85_MOHC.PRM
  Tot(90)       22        5     2070     16.0    772.8   1849.7   677.00      0.0     16.0      0.0      0.0      0.0     57.6       11    153.2    153.2       72     0.000     0.000     0.000     0.000       87        0        0        0        0       36       19     7.616       30      4.6    0.351   -9.900     0.17    0.000    0.000       11        9     2070  Maize_short_Cahul_22May_Optimum_85_MOHC.PRM
  Tot(91)       22        5     2071     79.3    777.1   1862.6   685.00      0.0     74.6      4.7      0.0      0.0     79.6       14    145.8    145.8       76     0.000     0.000     0.000     0.000       87        0        0        0        0       40       18     6.637       26     24.2    1.603   -9.900     0.79    0.000    0.000       11        9     2071  Maize_short_Cahul_22May_Optimum_85_MOHC.PRM
  Tot(92)       22        5     2072     57.5    770.0   1858.3   693.00      0.0     55.6      1.9      4.0      0.0     85.9       17    159.4    159.4       73     0.000     0.000     0.000     0.000       85        0        0        0        0       35       20     7.963       32      1.9    0.147   -9.900     0.06    0.000    0.000       11        9     2072  Maize_short_Cahul_22May_Optimum_85_MOHC.PRM
  Tot(93)       22        5     2073    113.3    700.2   1752.8   701.00      0.0    110.6      2.7      0.0      0.0    130.3       33    184.2    184.2       72     0.000     0.000     0.000     0.000       89        0        0        0        1       27       21    10.019       40     25.6    2.569   -9.900     0.87    0.000    0.000       11        9     2073  Maize_short_Cahul_22May_Optimum_85_MOHC.PRM
  Tot(94)       22        5     2074     38.5    796.7   1868.2   709.00      0.0     38.5      0.0      0.0      0.0     79.8       14    149.2    149.2       74     0.000     0.000     0.000     0.000       85        0        0        0        0       38       19     7.047       28      1.9    0.135   -9.900     0.06    0.000    0.000       11        9     2074  Maize_short_Cahul_22May_Optimum_85_MOHC.PRM
  Tot(95)       22        5     2075     30.7    766.9   1888.0   717.00      0.0     30.7      0.0      0.0      0.0     73.6       13    149.4    149.4       78     0.000     0.000     0.000     0.000       92        0        0        0        0       39       17     7.398       29     26.4    1.954   -9.900     0.90    0.000    0.000       11        9     2075  Maize_short_Cahul_22May_Optimum_85_MOHC.PRM
  Tot(96)       22        5     2076     55.6    740.0   1789.9   725.00      0.0     53.6      2.0      6.5      0.0     81.5       17    165.7    165.7       72     0.000     0.000     0.000     0.000       87        0        0        0        3       33       20     8.667       35      5.4    0.466   -9.900     0.19    0.000    0.000       11        9     2076  Maize_short_Cahul_22May_Optimum_85_MOHC.PRM
  Tot(97)       22        5     2077     58.8    714.5   1820.3   733.00      0.0     58.5      0.3      0.0      0.0     86.1       19    164.0    163.9       72     0.000     0.000     0.000     0.000      107        0        0        0        0       33       20     8.916       36     21.7    1.931   -9.900     0.77    0.000    0.000       11        9     2077  Maize_short_Cahul_22May_Optimum_85_MOHC.PRM
  Tot(98)       22        5     2078    103.9    689.3   1865.5   742.00      0.0    103.5      0.4      1.2      0.0    123.7       32    185.6    185.7       73     0.000     0.000     0.000     0.000       96        0        0        0        0       25       21    11.262       45     11.5    1.293   -9.900     0.43    0.000    0.000       11        9     2078  Maize_short_Cahul_22May_Optimum_85_MOHC.PRM
  Tot(99)       22        5     2079     28.5    752.9   1869.4   750.00      0.0     28.5      0.0      0.0      0.0     68.3       12    146.9    146.9       78     0.000     0.000     0.000     0.000       88        0        0        0        2       40       17     7.064       28     21.7    1.531   -9.900     0.72    0.000    0.000       11        9     2079  Maize_short_Cahul_22May_Optimum_85_MOHC.PRM
 Tot(100)       22        5     2080     97.0    789.9   1953.4   758.00      0.0     97.0      0.0      0.0      0.0    126.1       22    169.4    169.4       82     0.000     0.000     0.000     0.000       95        0        0        0        0       39       16     8.328       33     27.9    2.323   -9.900     0.79    0.000    0.000       11        9     2080  Maize_short_Cahul_22May_Optimum_85_MOHC.PRM
 Tot(101)       22        5     2081     90.7    740.4   1949.2   767.00      0.0     90.2      0.5      0.0      0.0    117.7       25    175.2    175.2       73     0.000     0.000     0.000     0.000       90        0        0        0        0       31       19     9.307       37      1.3    0.124   -9.900     0.04    0.000    0.000       11        9     2081  Maize_short_Cahul_22May_Optimum_85_MOHC.PRM
 Tot(102)       22        5     2082     27.3    788.3   1974.2   775.00      0.0     27.1      0.2      0.0      0.0     65.4       12    158.9    158.9       73     0.000     0.000     0.000     0.000       87        0        0        0        0       35       19     7.948       32     -9.9    0.000   -9.900     0.00    0.000    0.000       11        9     2082  Maize_short_Cahul_22May_Optimum_85_MOHC.PRM
 Tot(103)       22        5     2083     55.2    810.0   1909.8   784.00      0.0     48.5      6.7      6.2      0.0     82.5       14    146.2    146.2       74     0.000     0.000     0.000     0.000       83        0        0        0        0       38       19     6.719       27      0.7    0.049   -9.900     0.02    0.000    0.000       11        9     2083  Maize_short_Cahul_22May_Optimum_85_MOHC.PRM
 Tot(104)       22        5     2084    155.8    660.0   1752.4   792.00      0.0    115.0     40.8     63.3      0.0     74.2       21    188.4    188.4       74     0.000     0.000     0.000     0.000       92        0        0        0        1       25       20    11.188       45      2.5    0.279   -9.900     0.11    0.000    0.000       11        9     2084  Maize_short_Cahul_22May_Optimum_85_MOHC.PRM
 Tot(105)       22        5     2085     66.6    807.4   2006.3   801.00      0.0     66.6      0.0      0.0      0.0    107.8       18    152.5    152.5       77     0.000     0.000     0.000     0.000       89        0        0        0        0       37       18     7.586       31      0.5    0.038   -9.900     0.01    0.000    0.000       11        9     2085  Maize_short_Cahul_22May_Optimum_85_MOHC.PRM
 Tot(106)       22        5     2086     53.6    738.4   1892.7   810.00      0.0     53.5      0.1      0.0      0.0     87.7       18    160.0    160.0       74     0.000     0.000     0.000     0.000       89        0        0        0        0       33       19     8.579       35     24.6    2.109   -9.900     0.88    0.000    0.000       11        9     2086  Maize_short_Cahul_22May_Optimum_85_MOHC.PRM
 Tot(107)       22        5     2087     28.5    837.7   1966.9   818.00      0.0     28.5      0.0      0.0      0.0     72.9       11    144.0    144.0       78     0.000     0.000     0.000     0.000       95        0        0        0        0       42       16     6.545       27     11.5    0.752   -9.900     0.35    0.000    0.000       11        9     2087  Maize_short_Cahul_22May_Optimum_85_MOHC.PRM
 Tot(108)       22        5     2088     36.6    864.4   1936.6   827.00      0.0     36.2      0.4      0.0      0.0     71.2       10    153.7    153.1       84     0.000     0.000     0.000     0.000      107        0        0        0        0       45       13     7.182       29     12.2    0.876   -9.900     0.39    0.000    0.000       11        9     2088  Maize_short_Cahul_22May_Optimum_85_MOHC.PRM
 Tot(109)       22        5     2089     19.4    844.3   1986.7   836.00      0.0     19.4      0.0      0.0      0.0     57.1        9    150.8    151.3       76     0.000     0.000     0.000     0.000       87        0        0        0        0       39       18     6.722       27      1.6    0.110   -9.900     0.05    0.000    0.000       11        9     2089  Maize_short_Cahul_22May_Optimum_85_MOHC.PRM
 Tot(110)       22        5     2090     93.0    719.4   1860.6   845.00      0.0     85.9      7.1     16.6      0.0     98.5       23    168.2    168.2       70     0.000     0.000     0.000     0.000       86        0        0        0        0       31       21     8.541       35      0.4    0.038   -9.900     0.01    0.000    0.000       11        9     2090  Maize_short_Cahul_22May_Optimum_85_MOHC.PRM
 Tot(111)       22        5     2091     38.9    864.1   1992.2   854.00      0.0     38.1      0.8      0.0      0.0     76.6       12    145.9    145.9       75     0.000     0.000     0.000     0.000       83        0        0        0        0       39       18     6.288       26      2.4    0.151   -9.900     0.07    0.000    0.000       11        9     2091  Maize_short_Cahul_22May_Optimum_85_MOHC.PRM
 Tot(112)       22        5     2092     12.2    861.1   1989.0   863.00      0.0     12.2      0.0      0.0      0.0     55.0        8    147.7    147.7       78     0.000     0.000     0.000     0.000       91        0        0        0        0       40       16     6.876       28      1.9    0.133   -9.900     0.07    0.000    0.000       11        9     2092  Maize_short_Cahul_22May_Optimum_85_MOHC.PRM
 Tot(113)       22        5     2093     31.4    860.8   2014.6   872.00      0.0     31.4      0.0      0.0      0.0     72.7       12    148.5    148.5       71     0.000     0.000     0.000     0.000       85        0        0        0        0       37       19     6.636       27     -9.9    0.000   -9.900     0.00    0.000    0.000       11        9     2093  Maize_short_Cahul_22May_Optimum_85_MOHC.PRM
 Tot(114)       22        5     2094     13.6    864.8   2023.7   881.00      0.0     13.6      0.0      0.0      0.0     58.2        9    145.0    145.0       80     0.000     0.000     0.000     0.000       92        0        0        0        0       42       16     6.683       28     16.1    1.074   -9.900     0.54    0.000    0.000       11        9     2094  Maize_short_Cahul_22May_Optimum_85_MOHC.PRM
 Tot(115)       22        5     2095     14.2    849.8   2004.0   890.00      0.0     14.2      0.0      0.0      0.0     56.9        9    145.5    145.5       74     0.000     0.000     0.000     0.000       86        0        0        0        0       39       19     6.514       27      0.9    0.057   -9.900     0.03    0.000    0.000       11        9     2095  Maize_short_Cahul_22May_Optimum_85_MOHC.PRM
 Tot(116)       22        5     2096     55.6    804.0   2016.5   899.00      0.0     53.3      2.3      2.2      0.0     92.0       16    153.7    153.7       76     0.000     0.000     0.000     0.000       89        0        0        0        0       37       18     7.649       32     12.3    0.942   -9.900     0.39    0.000    0.000       11        9     2096  Maize_short_Cahul_22May_Optimum_85_MOHC.PRM
 Tot(117)       22        5     2097     52.7    760.5   1927.3   908.00      0.0     52.7      0.0      0.0      0.0     92.4       17    152.1    152.1       76     0.000     0.000     0.000     0.000       88        0        0        0        0       37       18     7.515       31      5.2    0.392   -9.900     0.16    0.000    0.000       11        9     2097  Maize_short_Cahul_22May_Optimum_85_MOHC.PRM
 Tot(118)       22        5     2098     44.7    789.3   1975.8   917.00      0.0     44.7      0.0      0.0      0.0     81.1       15    150.2    150.2       73     0.000     0.000     0.000     0.000       85        0        0        0        0       37       19     7.058       29      0.3    0.023   -9.900     0.01    0.000    0.000       11        9     2098  Maize_short_Cahul_22May_Optimum_85_MOHC.PRM
 Tot(119)       22        5     2099    105.5    694.6   1903.1   927.00      0.0    102.2      3.3      3.1      0.0     94.2       29    225.7    225.7       76     0.000     0.000     0.000     0.000      101        0        0        0        0       12       20    13.525       56     10.1    1.361   -9.900     0.43    0.000    0.000       11        9     2099  Maize_short_Cahul_22May_Optimum_85_MOHC.PRM
