AquaCrop 7.0 (August 2022) - Output created on (date) : 24-11-2022   at (time) : 10:25:26

    RunNr     Day1   Month1    Year1     Rain      ETo       GD     CO2      Irri   Infilt   Runoff    Drain   Upflow        E     E/Ex       Tr      TrW   Tr/Trx    SaltIn   SaltOut    SaltUp  SaltProf     Cycle   SaltStr  FertStr  WeedStr  TempStr   ExpStr   StoStr  BioMass  Brelative   HI    Y(dry)  Y(fresh)    WPet      Bin     Bout     DayN   MonthN    YearN
                                           mm       mm  degC.day    ppm        mm       mm       mm       mm       mm       mm        %       mm       mm        %    ton/ha    ton/ha    ton/ha    ton/ha      days       %        %        %        %        %        %    ton/ha        %       %    ton/ha   ton/ha    kg/m3   ton/ha   ton/ha
   Tot(1)        7        5     1981    330.3    462.9   1198.4   340.11      0.0    283.1     47.2     56.3      0.0    109.4       56    275.1    212.3      100     0.000     0.000     0.000     0.000      107        0       42       25       13        1        0    16.085       75     40.0    6.434   -9.900     1.67    0.000    0.000       27        8     1981  Maize_Short_Soroca_7May_NonOptimum_26_MPI.PRM
   Tot(2)        7        5     1982    276.4    461.1   1144.9   341.22      0.0    241.0     35.4     37.5      0.0     91.0       42    247.8    190.3      100     0.000     0.000     0.000     0.000      107        0       42       25       15        2        0    15.482       74     40.0    6.193   -9.900     1.83    0.000    0.000       27        8     1982  Maize_Short_Soroca_7May_NonOptimum_26_MPI.PRM
   Tot(3)        7        5     1983    225.7    446.3   1210.8   342.84      0.0    220.5      5.2      1.0      0.0     89.5       45    244.5    189.7      100     0.000     0.000     0.000     0.000      107        0       42       25        9        2        0    15.815       74     40.0    6.329   -9.900     1.90    0.000    0.000       27        8     1983  Maize_Short_Soroca_7May_NonOptimum_26_MPI.PRM
   Tot(4)        7        5     1984    347.7    420.8   1026.2   344.40      0.0    328.6     19.1     25.4      0.0    144.0       85    231.4    179.7      100     0.000     0.000     0.000     0.000      107        0       42       25       20        0        0    14.678       75     40.0    5.871   -9.900     1.56    0.000    0.000       27        8     1984  Maize_Short_Soroca_7May_NonOptimum_26_MPI.PRM
   Tot(5)        7        5     1985    364.9    454.7   1143.8   345.87      0.0    324.5     40.4     56.7      0.0    131.4       68    253.5    193.4      100     0.000     0.000     0.000     0.000      107        0       42       25       15        0        0    15.415       75     40.0    6.166   -9.900     1.60    0.000    0.000       27        8     1985  Maize_Short_Soroca_7May_NonOptimum_26_MPI.PRM
   Tot(6)        7        5     1986    164.7    525.3   1219.4   347.19      0.0    164.3      0.4      0.0      0.0     97.0       40    259.0    202.5       92     0.000     0.000     0.000     0.000      107        0       42       25       12        8        5    13.939       67     40.0    5.581   -9.900     1.57    0.000    0.000       27        8     1986  Maize_Short_Soroca_7May_NonOptimum_26_MPI.PRM
   Tot(7)        7        5     1987    273.7    465.1   1100.2   348.98      0.0    263.6     10.1     12.9      0.0    131.5       71    274.3    212.0      100     0.000     0.000     0.000     0.000      107        0       42       25       19        6        0    15.354       74     40.4    6.206   -9.900     1.53    0.000    0.000       27        8     1987  Maize_Short_Soroca_7May_NonOptimum_26_MPI.PRM
   Tot(8)        7        5     1988    304.7    440.0   1217.4   351.45      0.0    290.1     14.6     30.8      0.0    131.0       80    283.6    221.4      100     0.000     0.000     0.000     0.000      107        0       42       25       10        1        0    16.707       75     40.0    6.687   -9.900     1.61    0.000    0.000       27        8     1988  Maize_Short_Soroca_7May_NonOptimum_26_MPI.PRM
   Tot(9)        7        5     1989    282.2    464.6   1130.1   352.89      0.0    262.4     19.8     25.4      0.0    101.1       53    275.0    211.4      100     0.000     0.000     0.000     0.000      107        0       42       25       15        2        0    16.037       75     40.1    6.428   -9.900     1.71    0.000    0.000       27        8     1989  Maize_Short_Soroca_7May_NonOptimum_26_MPI.PRM
  Tot(10)        7        5     1990    185.9    477.8   1101.1   354.16      0.0    184.2      1.7      2.5      0.0    113.8       58    266.9    206.5       95     0.000     0.000     0.000     0.000      107        0       42       25       18        3        4    15.302       70     40.0    6.126   -9.900     1.61    0.000    0.000       27        8     1990  Maize_Short_Soroca_7May_NonOptimum_26_MPI.PRM
  Tot(11)        7        5     1991    456.1    412.7   1129.9   355.48      0.0    403.6     52.5     46.9      0.0    128.5       85    271.1    210.0      100     0.000     0.000     0.000     0.000      107        0       42       25       20        0        0    17.036       75     40.0    6.815   -9.900     1.71    0.000    0.000       27        8     1991  Maize_Short_Soroca_7May_NonOptimum_26_MPI.PRM
  Tot(12)        7        5     1992    184.4    507.5   1204.4   356.27      0.0    182.6      1.8      4.3      0.0    130.3       69    268.1    207.9       83     0.000     0.000     0.000     0.000      107        0       42       25       16        5       12    13.721       61     39.7    5.450   -9.900     1.37    0.000    0.000       27        8     1992  Maize_Short_Soroca_7May_NonOptimum_26_MPI.PRM
  Tot(13)        7        5     1993    225.5    480.7   1127.5   356.95      0.0    219.8      5.7      9.9      0.0    124.3       62    266.5    206.0       99     0.000     0.000     0.000     0.000      107        0       42       25       14        1        1    15.385       75     40.0    6.157   -9.900     1.58    0.000    0.000       27        8     1993  Maize_Short_Soroca_7May_NonOptimum_26_MPI.PRM
  Tot(14)        7        5     1994    261.0    521.2   1199.0   358.63      0.0    230.3     30.7     13.8      0.0    119.5       54    248.1    193.8       83     0.000     0.000     0.000     0.000      107        0       42       25       13        7       12    12.542       57     39.6    4.962   -9.900     1.35    0.000    0.000       27        8     1994  Maize_Short_Soroca_7May_NonOptimum_26_MPI.PRM
  Tot(15)        7        5     1995    305.1    494.6   1256.9   360.62      0.0    274.9     30.2     13.8      0.0    116.1       57    305.4    235.8      100     0.000     0.000     0.000     0.000      107        0       42       25        8        3        0    17.166       75     40.1    6.883   -9.900     1.63    0.000    0.000       27        8     1995  Maize_Short_Soroca_7May_NonOptimum_26_MPI.PRM
  Tot(16)        7        5     1996    285.8    501.1   1244.3   362.37      0.0    267.2     18.6      8.4      0.0     98.7       42    272.6    211.3      100     0.000     0.000     0.000     0.000      107        0       42       25       11        3        0    16.012       74     40.0    6.406   -9.900     1.73    0.000    0.000       27        8     1996  Maize_Short_Soroca_7May_NonOptimum_26_MPI.PRM
  Tot(17)        7        5     1997    299.6    455.8   1162.2   363.47      0.0    285.4     14.2      0.0      0.0    100.3       49    256.7    198.8      100     0.000     0.000     0.000     0.000      107        0       42       25       14        2        0    16.593       75     40.0    6.637   -9.900     1.86    0.000    0.000       27        8     1997  Maize_Short_Soroca_7May_NonOptimum_26_MPI.PRM
  Tot(18)        7        5     1998    308.7    445.2   1198.7   366.50      0.0    287.4     21.3      4.9      0.0    123.3       70    271.9    209.6      100     0.000     0.000     0.000     0.000      107        0       42       25       17        1        0    16.304       75     40.0    6.522   -9.900     1.65    0.000    0.000       27        8     1998  Maize_Short_Soroca_7May_NonOptimum_26_MPI.PRM
  Tot(19)        7        5     1999    155.2    512.9   1310.0   368.14      0.0    155.2      0.0      0.0      0.0     95.6       41    266.2    209.2       90     0.000     0.000     0.000     0.000      107        0       42       25       10       13        7    14.714       63     40.4    5.950   -9.900     1.64    0.000    0.000       27        8     1999  Maize_Short_Soroca_7May_NonOptimum_26_MPI.PRM
  Tot(20)        7        5     2000    240.2    521.6   1223.8   369.41      0.0    230.6      9.6      0.0      0.0     90.6       37    285.6    222.0      100     0.000     0.000     0.000     0.000      107        0       42       25       13        5        0    15.911       73     40.0    6.367   -9.900     1.69    0.000    0.000       27        8     2000  Maize_Short_Soroca_7May_NonOptimum_26_MPI.PRM
  Tot(21)        7        5     2001    255.6    491.7   1222.5   371.07      0.0    247.3      8.3     18.7      0.0    121.2       66    307.8    236.8       97     0.000     0.000     0.000     0.000      107        0       42       25       16        1        3    16.698       73     40.0    6.676   -9.900     1.56    0.000    0.000       27        8     2001  Maize_Short_Soroca_7May_NonOptimum_26_MPI.PRM
  Tot(22)        7        5     2002    365.4    509.4   1309.6   373.16      0.0    331.0     34.4      0.0      0.0    127.4       58    304.0    236.2       99     0.000     0.000     0.000     0.000      107        0       42       25       10       16        1    16.622       72     40.8    6.790   -9.900     1.57    0.000    0.000       27        8     2002  Maize_Short_Soroca_7May_NonOptimum_26_MPI.PRM
  Tot(23)        7        5     2003    329.8    556.2   1316.9   375.80      0.0    274.8     55.0      3.2      0.0     87.3       30    282.5    219.4      100     0.000     0.000     0.000     0.000      107        0       42       25        7        9        0    16.158       71     40.0    6.463   -9.900     1.75    0.000    0.000       27        8     2003  Maize_Short_Soroca_7May_NonOptimum_26_MPI.PRM
  Tot(24)        7        5     2004    239.4    487.9   1103.3   377.49      0.0    217.8     21.6      0.0      0.0     72.2       31    266.1    210.2      100     0.000     0.000     0.000     0.000      107        0       42       25       19       14        0    15.790       71     40.2    6.347   -9.900     1.88    0.000    0.000       27        8     2004  Maize_Short_Soroca_7May_NonOptimum_26_MPI.PRM
  Tot(25)        7        5     2005    262.5    469.1   1193.2   379.80      0.0    243.3     19.2     22.7      0.0    108.8       56    282.0    217.7      100     0.000     0.000     0.000     0.000      107        0       42       25       11        4        0    16.961       74     40.1    6.802   -9.900     1.74    0.000    0.000       27        8     2005  Maize_Short_Soroca_7May_NonOptimum_26_MPI.PRM
  Tot(26)        7        5     2006    315.6    495.5   1200.9   381.90      0.0    301.7     13.9     21.8      0.0    141.7       77    304.6    237.1       96     0.000     0.000     0.000     0.000      107        0       42       25       15        5        3    16.305       71     40.3    6.565   -9.900     1.47    0.000    0.000       27        8     2006  Maize_Short_Soroca_7May_NonOptimum_26_MPI.PRM
  Tot(27)        7        5     2007    152.4    612.6   1444.4   383.77      0.0    152.1      0.3      0.0      0.0    125.1       36    232.9    186.0       83     0.000     0.000     0.000     0.000      107        0       42       25        3       24       12    11.493       49     40.4    4.644   -9.900     1.30    0.000    0.000       27        8     2007  Maize_Short_Soroca_7May_NonOptimum_26_MPI.PRM
  Tot(28)        7        5     2008    341.8    530.8   1250.9   385.59      0.0    280.9     60.9      0.0      0.0    111.5       51    324.8    251.6       99     0.000     0.000     0.000     0.000      107        0       42       25        8       14        0    16.962       72     40.6    6.889   -9.900     1.58    0.000    0.000       27        8     2008  Maize_Short_Soroca_7May_NonOptimum_26_MPI.PRM
  Tot(29)        7        5     2009    220.9    551.9   1276.6   387.37      0.0    219.1      1.8      1.4      0.0    136.6       60    298.5    232.8       89     0.000     0.000     0.000     0.000      107        0       42       25       11        4       10    14.959       64     39.9    5.964   -9.900     1.37    0.000    0.000       27        8     2009  Maize_Short_Soroca_7May_NonOptimum_26_MPI.PRM
  Tot(30)        7        5     2010    341.4    489.0   1373.7   389.85      0.0    312.2     29.2     48.1      0.0    130.7       71    315.5    242.4       99     0.000     0.000     0.000     0.000      107        0       42       25        8        0        0    17.689       75     40.0    7.076   -9.900     1.59    0.000    0.000       27        8     2010  Maize_Short_Soroca_7May_NonOptimum_26_MPI.PRM
  Tot(31)        7        5     2011    187.9    543.3   1287.2   391.63      0.0    185.0      2.9      1.0      0.0     95.4       38    289.1    225.3       96     0.000     0.000     0.000     0.000      107        0       42       25        8        5        3    15.927       70     40.1    6.380   -9.900     1.66    0.000    0.000       27        8     2011  Maize_Short_Soroca_7May_NonOptimum_26_MPI.PRM
  Tot(32)        7        5     2012    144.1    600.6   1390.6   393.82      0.0    143.9      0.2      0.0      0.0    126.5       41    224.5    180.3       78     0.000     0.000     0.000     0.000      107        0       42       25        8       27       16    10.463       45     40.3    4.212   -9.900     1.20    0.000    0.000       27        8     2012  Maize_Short_Soroca_7May_NonOptimum_26_MPI.PRM
  Tot(33)        7        5     2013    224.9    523.6   1339.0   396.48      0.0    216.4      8.5     10.5      0.0    145.5       69    271.1    210.1       85     0.000     0.000     0.000     0.000      107        0       42       25        6        4       11    14.795       62     39.5    5.848   -9.900     1.40    0.000    0.000       27        8     2013  Maize_Short_Soroca_7May_NonOptimum_26_MPI.PRM
  Tot(34)        7        5     2014    310.9    505.5   1289.2   398.55      0.0    284.3     26.6     17.9      0.0    125.3       62    311.0    240.4      100     0.000     0.000     0.000     0.000      107        0       42       25        9        5        0    17.066       74     40.1    6.845   -9.900     1.57    0.000    0.000       27        8     2014  Maize_Short_Soroca_7May_NonOptimum_26_MPI.PRM
  Tot(35)        7        5     2015     53.8    613.9   1324.9   401.00      0.0     53.8      0.0      0.2      0.0     81.0       23    188.9    152.1       77     0.000     0.000     0.000     0.000       98        0       42       25        8       27       19     8.990       38     35.0    3.146   -9.900     1.17    0.000    0.000       27        8     2015  Maize_Short_Soroca_7May_NonOptimum_26_MPI.PRM
  Tot(36)        7        5     2016    260.0    524.9   1288.5   403.00      0.0    257.7      2.3      0.0      0.0    146.2       78    314.3    240.9       91     0.000     0.000     0.000     0.000      107        0       42       25       12        3        7    15.831       67     40.1    6.342   -9.900     1.38    0.000    0.000       27        8     2016  Maize_Short_Soroca_7May_NonOptimum_26_MPI.PRM
  Tot(37)        7        5     2017    198.7    557.0   1274.9   405.00      0.0    197.7      1.0      0.3      0.0    125.5       55    288.9    226.5       86     0.000     0.000     0.000     0.000      107        0       42       25       10        8       10    14.814       63     40.0    5.920   -9.900     1.43    0.000    0.000       27        8     2017  Maize_Short_Soroca_7May_NonOptimum_26_MPI.PRM
  Tot(38)        7        5     2018    243.9    523.5   1389.5   408.00      0.0    231.6     12.3      0.0      0.0     92.6       38    294.9    227.1      100     0.000     0.000     0.000     0.000      107        0       42       25        7        5        0    17.113       73     40.0    6.847   -9.900     1.77    0.000    0.000       27        8     2018  Maize_Short_Soroca_7May_NonOptimum_26_MPI.PRM
  Tot(39)        7        5     2019    283.0    528.5   1353.3   410.00      0.0    260.1     22.9     36.0      0.0    154.5       77    289.8    227.1       87     0.000     0.000     0.000     0.000      107        0       42       25        4        5       10    15.346       65     39.9    6.123   -9.900     1.38    0.000    0.000       27        8     2019  Maize_Short_Soroca_7May_NonOptimum_26_MPI.PRM
  Tot(40)        7        5     2020    275.7    429.2   1077.4   412.00      0.0    270.0      5.7     11.8      0.0    114.6       67    252.4    195.7      100     0.000     0.000     0.000     0.000      107        0       42       25       16        1        0    15.995       75     40.0    6.400   -9.900     1.74    0.000    0.000       27        8     2020  Maize_Short_Soroca_7May_NonOptimum_26_MPI.PRM
  Tot(41)        7        5     2021    195.9    462.3   1041.9   414.00      0.0    194.3      1.6      0.9      0.0    106.3       56    268.0    205.1      100     0.000     0.000     0.000     0.000      107        0       42       25       22        5        0    16.191       74     40.2    6.515   -9.900     1.74    0.000    0.000       27        8     2021  Maize_Short_Soroca_7May_NonOptimum_26_MPI.PRM
  Tot(42)        7        5     2022    366.5    425.0   1051.3   417.00      0.0    305.1     61.4      7.5      0.0    111.0       71    264.3    206.0      100     0.000     0.000     0.000     0.000      107        0       42       25       25        1        0    16.028       75     40.0    6.417   -9.900     1.71    0.000    0.000       27        8     2022  Maize_Short_Soroca_7May_NonOptimum_26_MPI.PRM
  Tot(43)        7        5     2023    239.8    546.8   1254.2   419.00      0.0    234.7      5.1      0.0      0.0    129.1       48    254.6    199.0       93     0.000     0.000     0.000     0.000      107        0       42       25       11       18        3    14.037       66     40.7    5.712   -9.900     1.49    0.000    0.000       27        8     2023  Maize_Short_Soroca_7May_NonOptimum_26_MPI.PRM
  Tot(44)        7        5     2024    212.5    471.9   1080.4   421.00      0.0    202.3     10.2      1.9      0.0    118.3       60    253.9    197.1       95     0.000     0.000     0.000     0.000      107        0       42       25       19        6        3    15.125       70     40.1    6.069   -9.900     1.63    0.000    0.000       27        8     2024  Maize_Short_Soroca_7May_NonOptimum_26_MPI.PRM
  Tot(45)        7        5     2025    188.3    482.0   1150.9   423.00      0.0    187.6      0.7      2.9      0.0    116.5       57    266.7    207.5       96     0.000     0.000     0.000     0.000      107        0       42       25       13        7        3    15.999       71     40.2    6.429   -9.900     1.68    0.000    0.000       27        8     2025  Maize_Short_Soroca_7May_NonOptimum_26_MPI.PRM
  Tot(46)        7        5     2026    130.4    519.4   1070.8   424.00      0.0    130.4      0.0      0.0      0.0    110.4       47    228.5    178.1       83     0.000     0.000     0.000     0.000      107        0       42       25       20       18       11    12.538       58     40.5    5.072   -9.900     1.50    0.000    0.000       27        8     2026  Maize_Short_Soroca_7May_NonOptimum_26_MPI.PRM
  Tot(47)        7        5     2027    326.3    399.4    984.9   426.00      0.0    283.0     43.3     22.0      0.0    110.9       70    219.9    169.6      100     0.000     0.000     0.000     0.000      107        0       42       25       22        0        0    15.497       75     40.0    6.199   -9.900     1.87    0.000    0.000       27        8     2027  Maize_Short_Soroca_7May_NonOptimum_26_MPI.PRM
  Tot(48)        7        5     2028    195.0    443.0    998.7   428.00      0.0    194.4      0.6      0.0      0.0    113.9       61    238.9    185.6      100     0.000     0.000     0.000     0.000      107        0       42       25       20        2        0    15.686       75     40.0    6.282   -9.900     1.78    0.000    0.000       27        8     2028  Maize_Short_Soroca_7May_NonOptimum_26_MPI.PRM
  Tot(49)        7        5     2029    234.8    422.7    975.8   429.00      0.0    232.7      2.1      2.0      0.0    110.0       72    250.3    195.0      100     0.000     0.000     0.000     0.000      107        0       42       25       26        1        0    15.637       75     40.1    6.264   -9.900     1.74    0.000    0.000       27        8     2029  Maize_Short_Soroca_7May_NonOptimum_26_MPI.PRM
  Tot(50)        7        5     2030    281.9    490.8   1160.4   431.00      0.0    269.4     12.5      6.9      0.0    114.9       61    302.1    232.1      100     0.000     0.000     0.000     0.000      107        0       42       25       15        1        0    16.754       75     40.1    6.716   -9.900     1.61    0.000    0.000       27        8     2030  Maize_Short_Soroca_7May_NonOptimum_26_MPI.PRM
  Tot(51)        7        5     2031    230.2    472.1   1115.6   432.00      0.0    228.6      1.6      0.0      0.0    102.3       46    248.3    193.9      100     0.000     0.000     0.000     0.000      107        0       42       25       16       11        0    15.931       72     40.2    6.410   -9.900     1.83    0.000    0.000       27        8     2031  Maize_Short_Soroca_7May_NonOptimum_26_MPI.PRM
  Tot(52)        7        5     2032    220.8    454.7   1036.4   433.00      0.0    219.1      1.7      3.3      0.0    124.6       71    266.1    205.3      100     0.000     0.000     0.000     0.000      107        0       42       25       21        1        0    16.326       75     40.0    6.535   -9.900     1.67    0.000    0.000       27        8     2032  Maize_Short_Soroca_7May_NonOptimum_26_MPI.PRM
  Tot(53)        7        5     2033    204.5    466.1   1049.4   435.00      0.0    195.0      9.5      9.4      0.0     91.5       42    234.2    181.4      100     0.000     0.000     0.000     0.000      107        0       42       25       19        3        0    15.297       74     40.0    6.120   -9.900     1.88    0.000    0.000       27        8     2033  Maize_Short_Soroca_7May_NonOptimum_26_MPI.PRM
  Tot(54)        7        5     2034    220.6    509.4   1161.4   436.00      0.0    214.5      6.1      0.0      0.0    107.3       50    292.7    227.7       98     0.000     0.000     0.000     0.000      107        0       42       25       15        4        1    16.845       73     40.1    6.762   -9.900     1.69    0.000    0.000       27        8     2034  Maize_Short_Soroca_7May_NonOptimum_26_MPI.PRM
  Tot(55)        7        5     2035    145.9    489.2   1077.9   437.00      0.0    145.3      0.6      0.0      0.0    108.6       57    251.4    194.9       88     0.000     0.000     0.000     0.000      107        0       42       25       17        5        7    14.712       66     40.0    5.890   -9.900     1.64    0.000    0.000       27        8     2035  Maize_Short_Soroca_7May_NonOptimum_26_MPI.PRM
  Tot(56)        7        5     2036    240.6    454.4   1122.0   438.00      0.0    233.4      7.2     24.4      0.0    126.7       70    262.2    202.1      100     0.000     0.000     0.000     0.000      107        0       42       25       16        3        0    16.565       75     40.2    6.659   -9.900     1.71    0.000    0.000       27        8     2036  Maize_Short_Soroca_7May_NonOptimum_26_MPI.PRM
  Tot(57)        7        5     2037    266.8    450.0   1047.6   438.00      0.0    262.8      4.0      0.0      0.0    106.1       50    224.0    173.6      100     0.000     0.000     0.000     0.000      107        0       42       25       19        3        0    15.530       74     40.1    6.224   -9.900     1.89    0.000    0.000       27        8     2037  Maize_Short_Soroca_7May_NonOptimum_26_MPI.PRM
  Tot(58)        7        5     2038    198.2    437.4   1049.7   439.00      0.0    193.5      4.7     10.9      0.0    110.5       62    248.3    192.2      100     0.000     0.000     0.000     0.000      107        0       42       25       20        4        0    16.467       75     40.3    6.630   -9.900     1.85    0.000    0.000       27        8     2038  Maize_Short_Soroca_7May_NonOptimum_26_MPI.PRM
  Tot(59)        7        5     2039    209.0    518.9   1100.6   440.00      0.0    203.9      5.1      0.0      0.0    115.6       54    266.4    208.7       91     0.000     0.000     0.000     0.000      107        0       42       25       16       10        5    14.490       65     40.4    5.857   -9.900     1.53    0.000    0.000       27        8     2039  Maize_Short_Soroca_7May_NonOptimum_26_MPI.PRM
  Tot(60)        7        5     2040    216.7    482.3   1094.4   440.00      0.0    210.6      6.1     13.7      0.0    135.5       69    257.8    198.9       97     0.000     0.000     0.000     0.000      107        0       42       25       21        1        2    15.421       73     40.0    6.169   -9.900     1.57    0.000    0.000       27        8     2040  Maize_Short_Soroca_7May_NonOptimum_26_MPI.PRM
  Tot(61)        7        5     2041     91.7    589.1   1173.0   441.00      0.0     91.4      0.3      0.0      0.0     77.6       28    234.4    182.9       78     0.000     0.000     0.000     0.000      107        0       42       25       13        9       17    11.948       52     39.4    4.707   -9.900     1.51    0.000    0.000       27        8     2041  Maize_Short_Soroca_7May_NonOptimum_26_MPI.PRM
  Tot(62)        7        5     2042    272.4    467.7   1136.7   441.00      0.0    260.4     12.0      0.0      0.0    102.9       47    243.3    186.8      100     0.000     0.000     0.000     0.000      107        0       42       25       13        5        0    16.314       74     40.2    6.561   -9.900     1.89    0.000    0.000       27        8     2042  Maize_Short_Soroca_7May_NonOptimum_26_MPI.PRM
  Tot(63)        7        5     2043    205.2    435.1    966.6   441.00      0.0    203.0      2.2      6.9      0.0    113.2       67    236.3    182.8      100     0.000     0.000     0.000     0.000      107        0       42       25       28        0        0    15.118       75     40.0    6.048   -9.900     1.73    0.000    0.000       27        8     2043  Maize_Short_Soroca_7May_NonOptimum_26_MPI.PRM
  Tot(64)        7        5     2044    310.8    424.6   1049.1   442.00      0.0    292.5     18.3     26.6      0.0    106.0       54    222.4    173.2      100     0.000     0.000     0.000     0.000      107        0       42       25       20        2        0    15.789       75     40.1    6.331   -9.900     1.93    0.000    0.000       27        8     2044  Maize_Short_Soroca_7May_NonOptimum_26_MPI.PRM
  Tot(65)        7        5     2045    310.4    404.7   1029.6   442.00      0.0    289.3     21.1     23.8      0.0    108.4       75    250.8    194.0      100     0.000     0.000     0.000     0.000      107        0       42       25       24        2        0    16.594       75     40.0    6.641   -9.900     1.85    0.000    0.000       27        8     2045  Maize_Short_Soroca_7May_NonOptimum_26_MPI.PRM
  Tot(66)        7        5     2046    305.1    414.1   1029.0   442.00      0.0    284.0     21.1      0.0      0.0     97.0       53    228.6    176.6      100     0.000     0.000     0.000     0.000      107        0       42       25       20        6        0    15.767       74     40.2    6.333   -9.900     1.95    0.000    0.000       27        8     2046  Maize_Short_Soroca_7May_NonOptimum_26_MPI.PRM
  Tot(67)        7        5     2047    252.0    435.1   1072.6   442.00      0.0    239.3     12.7     10.5      0.0    101.8       57    247.9    191.3      100     0.000     0.000     0.000     0.000      107        0       42       25       20        1        0    15.936       75     40.0    6.377   -9.900     1.82    0.000    0.000       27        8     2047  Maize_Short_Soroca_7May_NonOptimum_26_MPI.PRM
  Tot(68)        7        5     2048    388.3    429.0   1119.4   442.00      0.0    321.0     67.3     14.6      0.0    125.6       67    235.1    182.0      100     0.000     0.000     0.000     0.000      107        0       42       25       14        2        0    16.418       75     40.1    6.582   -9.900     1.83    0.000    0.000       27        8     2048  Maize_Short_Soroca_7May_NonOptimum_26_MPI.PRM
  Tot(69)        7        5     2049    200.0    483.1   1063.4   443.00      0.0    190.6      9.4      9.7      0.0    124.8       66    256.9    200.2       97     0.000     0.000     0.000     0.000      107        0       42       25       18        4        3    15.004       72     40.2    6.031   -9.900     1.58    0.000    0.000       27        8     2049  Maize_Short_Soroca_7May_NonOptimum_26_MPI.PRM
  Tot(70)        7        5     2050    291.2    454.6   1067.6   443.00      0.0    262.3     28.9     29.2      0.0    117.8       62    257.7    198.6      100     0.000     0.000     0.000     0.000      107        0       42       25       17        1        0    16.207       75     40.0    6.488   -9.900     1.73    0.000    0.000       27        8     2050  Maize_Short_Soroca_7May_NonOptimum_26_MPI.PRM
  Tot(71)        7        5     2051    204.3    455.1   1033.4   443.00      0.0    202.0      2.3      4.5      0.0    111.2       65    265.8    205.7       98     0.000     0.000     0.000     0.000      107        0       42       25       19        5        1    16.199       74     40.3    6.524   -9.900     1.73    0.000    0.000       27        8     2051  Maize_Short_Soroca_7May_NonOptimum_26_MPI.PRM
  Tot(72)        7        5     2052    224.8    470.3   1121.6   443.00      0.0    213.3     11.5      0.0      0.0     88.4       39    242.2    188.8      100     0.000     0.000     0.000     0.000      107        0       42       25       14        8        0    15.992       73     40.3    6.449   -9.900     1.95    0.000    0.000       27        8     2052  Maize_Short_Soroca_7May_NonOptimum_26_MPI.PRM
  Tot(73)        7        5     2053    193.0    436.2   1045.2   443.00      0.0    189.2      3.8     11.1      0.0     95.1       58    262.2    201.8      100     0.000     0.000     0.000     0.000      107        0       42       25       19        2        0    16.397       75     40.0    6.564   -9.900     1.84    0.000    0.000       27        8     2053  Maize_Short_Soroca_7May_NonOptimum_26_MPI.PRM
  Tot(74)        7        5     2054    206.2    468.8   1029.2   443.00      0.0    200.5      5.7      7.5      0.0    105.9       58    268.0    207.4       99     0.000     0.000     0.000     0.000      107        0       42       25       20        3        0    16.120       74     40.1    6.461   -9.900     1.73    0.000    0.000       27        8     2054  Maize_Short_Soroca_7May_NonOptimum_26_MPI.PRM
  Tot(75)        7        5     2055    192.5    498.2   1141.8   443.00      0.0    183.1      9.4     12.5      0.0    125.6       62    254.3    199.2       89     0.000     0.000     0.000     0.000      107        0       42       25       15        7       10    14.403       64     40.1    5.779   -9.900     1.52    0.000    0.000       27        8     2055  Maize_Short_Soroca_7May_NonOptimum_26_MPI.PRM
  Tot(76)        7        5     2056    177.4    483.0   1093.4   442.00      0.0    176.3      1.1      1.2      0.0    132.5       74    256.8    198.4       90     0.000     0.000     0.000     0.000      107        0       42       25       16        5        7    14.808       67     40.1    5.943   -9.900     1.53    0.000    0.000       27        8     2056  Maize_Short_Soroca_7May_NonOptimum_26_MPI.PRM
  Tot(77)        7        5     2057    209.4    464.7   1071.6   442.00      0.0    202.8      6.6      7.2      0.0    110.5       58    255.0    195.6      100     0.000     0.000     0.000     0.000      107        0       42       25       20        2        0    15.908       75     40.1    6.374   -9.900     1.74    0.000    0.000       27        8     2057  Maize_Short_Soroca_7May_NonOptimum_26_MPI.PRM
  Tot(78)        7        5     2058    180.7    535.8   1165.3   442.00      0.0    179.9      0.8      0.0      0.0    113.4       41    253.0    201.7       97     0.000     0.000     0.000     0.000      107        0       42       25       13       17        2    14.983       67     40.4    6.058   -9.900     1.65    0.000    0.000       27        8     2058  Maize_Short_Soroca_7May_NonOptimum_26_MPI.PRM
  Tot(79)        7        5     2059    266.4    463.5   1071.9   442.00      0.0    238.8     27.6      1.7      0.0     93.6       46    249.0    192.8       97     0.000     0.000     0.000     0.000      107        0       42       25       20       10        1    14.976       71     40.4    6.050   -9.900     1.77    0.000    0.000       27        8     2059  Maize_Short_Soroca_7May_NonOptimum_26_MPI.PRM
  Tot(80)        7        5     2060    192.8    469.3   1058.7   442.00      0.0    181.1     11.7     15.9      0.0    117.7       71    249.3    194.1       86     0.000     0.000     0.000     0.000      107        0       42       25       23        3        9    14.031       64     39.9    5.605   -9.900     1.53    0.000    0.000       27        8     2060  Maize_Short_Soroca_7May_NonOptimum_26_MPI.PRM
  Tot(81)        7        5     2061    123.9    534.6   1193.7   441.00      0.0    123.7      0.2      0.0      0.0     90.6       36    238.6    187.3       84     0.000     0.000     0.000     0.000      107        0       42       25       13       23       11    13.057       56     40.7    5.318   -9.900     1.62    0.000    0.000       27        8     2061  Maize_Short_Soroca_7May_NonOptimum_26_MPI.PRM
  Tot(82)        7        5     2062    194.5    396.2    901.4   441.00      0.0    191.2      3.3     11.2      0.0    122.4       83    221.8    171.8      100     0.000     0.000     0.000     0.000      107        0       42       25       27        2        0    15.237       75     40.1    6.110   -9.900     1.78    0.000    0.000       27        8     2062  Maize_Short_Soroca_7May_NonOptimum_26_MPI.PRM
  Tot(83)        7        5     2063    195.0    495.5   1126.7   441.00      0.0    177.6     17.4      0.8      0.0    108.6       54    251.8    194.6       87     0.000     0.000     0.000     0.000      107        0       42       25       16       13        8    14.113       63     40.3    5.692   -9.900     1.58    0.000    0.000       27        8     2063  Maize_Short_Soroca_7May_NonOptimum_26_MPI.PRM
  Tot(84)        7        5     2064    266.4    464.5   1052.7   440.00      0.0    234.2     32.2      0.0      0.0     98.5       48    255.2    200.2      100     0.000     0.000     0.000     0.000      107        0       42       25       21        8        0    16.370       73     40.2    6.582   -9.900     1.86    0.000    0.000       27        8     2064  Maize_Short_Soroca_7May_NonOptimum_26_MPI.PRM
  Tot(85)        7        5     2065    189.9    392.6   1003.2   440.00      0.0    185.3      4.6      0.0      0.0     85.6       48    201.7    155.2      100     0.000     0.000     0.000     0.000      107        0       42       25       22        2        0    15.579       74     40.0    6.232   -9.900     2.17    0.000    0.000       27        8     2065  Maize_Short_Soroca_7May_NonOptimum_26_MPI.PRM
  Tot(86)        7        5     2066    210.3    436.7    992.8   440.00      0.0    209.3      1.0      0.0      0.0    110.3       61    240.7    186.1      100     0.000     0.000     0.000     0.000      107        0       42       25       20        3        0    15.853       75     40.1    6.364   -9.900     1.81    0.000    0.000       27        8     2066  Maize_Short_Soroca_7May_NonOptimum_26_MPI.PRM
  Tot(87)        7        5     2067    206.0    391.0    838.0   439.00      0.0    202.9      3.1      0.0      0.0     81.1       47    190.6    146.9      100     0.000     0.000     0.000     0.000      107        0       42       25       33        2        0    14.292       75     40.0    5.720   -9.900     2.11    0.000    0.000       27        8     2067  Maize_Short_Soroca_7May_NonOptimum_26_MPI.PRM
  Tot(88)        7        5     2068    287.8    400.7    981.5   439.00      0.0    264.2     23.6     37.7      0.0    116.2       80    232.7    181.8      100     0.000     0.000     0.000     0.000      107        0       42       25       25        0        0    15.063       75     40.0    6.030   -9.900     1.73    0.000    0.000       27        8     2068  Maize_Short_Soroca_7May_NonOptimum_26_MPI.PRM
  Tot(89)        7        5     2069    347.8    478.9   1218.3   438.00      0.0    337.1     10.7      0.0      0.0    124.5       56    260.1    201.9      100     0.000     0.000     0.000     0.000      107        0       42       25       10        5        0    16.574       74     40.1    6.643   -9.900     1.73    0.000    0.000       27        8     2069  Maize_Short_Soroca_7May_NonOptimum_26_MPI.PRM
  Tot(90)        7        5     2070    258.6    476.7   1136.4   437.00      0.0    250.2      8.4      0.0      0.0    114.7       57    272.9    211.9       99     0.000     0.000     0.000     0.000      107        0       42       25       14       14        0    16.182       73     40.7    6.593   -9.900     1.70    0.000    0.000       27        8     2070  Maize_Short_Soroca_7May_NonOptimum_26_MPI.PRM
  Tot(91)        7        5     2071    290.5    492.1   1152.0   437.00      0.0    272.5     18.0      0.0      0.0    120.3       53    264.7    203.9      100     0.000     0.000     0.000     0.000      107        0       42       25       11        3        0    16.645       74     40.1    6.668   -9.900     1.73    0.000    0.000       27        8     2071  Maize_Short_Soroca_7May_NonOptimum_26_MPI.PRM
  Tot(92)        7        5     2072    166.6    535.8   1246.9   436.00      0.0    166.1      0.5      0.5      0.0    142.2       65    234.2    184.1       79     0.000     0.000     0.000     0.000      107        0       42       25        9        6       16    12.653       54     39.3    4.974   -9.900     1.32    0.000    0.000       27        8     2072  Maize_Short_Soroca_7May_NonOptimum_26_MPI.PRM
  Tot(93)        7        5     2073    111.6    559.6   1174.8   436.00      0.0    111.6      0.0      0.0      0.0    105.9       43    220.9    173.7       77     0.000     0.000     0.000     0.000      106        0       42       25       16       14       20    11.221       48     39.7    4.459   -9.900     1.37    0.000    0.000       27        8     2073  Maize_Short_Soroca_7May_NonOptimum_26_MPI.PRM
  Tot(94)        7        5     2074    231.1    508.5   1197.3   435.00      0.0    226.3      4.8      0.0      0.0    116.1       52    263.5    205.6       93     0.000     0.000     0.000     0.000      107        0       42       25       14       11        3    15.006       67     40.4    6.055   -9.900     1.60    0.000    0.000       27        8     2074  Maize_Short_Soroca_7May_NonOptimum_26_MPI.PRM
  Tot(95)        7        5     2075    257.8    466.3   1069.6   435.00      0.0    248.8      9.0      0.1      0.0    115.8       63    271.2    208.1      100     0.000     0.000     0.000     0.000      107        0       42       25       20        1        0    16.118       75     40.0    6.447   -9.900     1.67    0.000    0.000       27        8     2075  Maize_Short_Soroca_7May_NonOptimum_26_MPI.PRM
  Tot(96)        7        5     2076    264.1    460.4   1128.5   434.00      0.0    243.5     20.6     24.0      0.0    131.6       69    257.0    201.4       96     0.000     0.000     0.000     0.000      107        0       42       25       15        5        2    15.808       72     40.1    6.347   -9.900     1.63    0.000    0.000       27        8     2076  Maize_Short_Soroca_7May_NonOptimum_26_MPI.PRM
  Tot(97)        7        5     2077    190.6    534.8   1127.5   433.00      0.0    186.6      4.0      0.0      0.0    115.7       50    274.9    210.8       93     0.000     0.000     0.000     0.000      107        0       42       25       15        5        5    15.254       69     40.0    6.104   -9.900     1.56    0.000    0.000       27        8     2077  Maize_Short_Soroca_7May_NonOptimum_26_MPI.PRM
  Tot(98)        7        5     2078    213.7    455.2   1073.7   433.00      0.0    208.2      5.5      1.3      0.0    102.1       51    247.4    191.5      100     0.000     0.000     0.000     0.000      107        0       42       25       17        4        0    15.892       74     40.1    6.378   -9.900     1.83    0.000    0.000       27        8     2078  Maize_Short_Soroca_7May_NonOptimum_26_MPI.PRM
  Tot(99)        7        5     2079    281.8    416.1   1000.7   432.00      0.0    257.2     24.6     35.0      0.0    111.4       65    223.3    172.9      100     0.000     0.000     0.000     0.000      107        0       42       25       21        1        0    15.242       75     40.0    6.097   -9.900     1.82    0.000    0.000       27        8     2079  Maize_Short_Soroca_7May_NonOptimum_26_MPI.PRM
 Tot(100)        7        5     2080    190.4    481.2   1088.2   432.00      0.0    179.3     11.1     33.5      0.0    122.9       66    242.1    189.2       85     0.000     0.000     0.000     0.000      107        0       42       25       20        5       10    14.272       64     40.0    5.702   -9.900     1.56    0.000    0.000       27        8     2080  Maize_Short_Soroca_7May_NonOptimum_26_MPI.PRM
 Tot(101)        7        5     2081    178.3    533.2   1216.6   431.00      0.0    176.3      2.0      1.5      0.0    127.5       59    258.2    201.3       84     0.000     0.000     0.000     0.000      107        0       42       25       12        8       12    13.378       59     40.0    5.348   -9.900     1.39    0.000    0.000       27        8     2081  Maize_Short_Soroca_7May_NonOptimum_26_MPI.PRM
 Tot(102)        7        5     2082    215.4    458.6   1067.0   431.00      0.0    205.9      9.5     10.0      0.0    120.5       64    250.3    191.5       96     0.000     0.000     0.000     0.000      107        0       42       25       18        2        2    15.739       73     40.0    6.297   -9.900     1.70    0.000    0.000       27        8     2082  Maize_Short_Soroca_7May_NonOptimum_26_MPI.PRM
 Tot(103)        7        5     2083    210.4    508.2   1082.5   430.00      0.0    208.0      2.4      4.2      0.0    105.9       55    295.9    230.2       96     0.000     0.000     0.000     0.000      107        0       42       25       18        4        3    16.147       72     40.1    6.467   -9.900     1.61    0.000    0.000       27        8     2083  Maize_Short_Soroca_7May_NonOptimum_26_MPI.PRM
 Tot(104)        7        5     2084    308.1    431.0   1017.2   429.00      0.0    291.4     16.7     11.2      0.0    123.5       68    243.8    188.0      100     0.000     0.000     0.000     0.000      107        0       42       25       20        0        0    16.148       75     40.0    6.460   -9.900     1.76    0.000    0.000       27        8     2084  Maize_Short_Soroca_7May_NonOptimum_26_MPI.PRM
 Tot(105)        7        5     2085    197.2    485.5   1085.0   429.00      0.0    194.0      3.2      4.0      0.0     90.7       42    263.5    206.1      100     0.000     0.000     0.000     0.000      107        0       42       25       14        9        0    15.929       72     40.1    6.384   -9.900     1.80    0.000    0.000       27        8     2085  Maize_Short_Soroca_7May_NonOptimum_26_MPI.PRM
 Tot(106)        7        5     2086    182.2    474.1   1134.9   428.00      0.0    180.9      1.3      1.4      0.0    108.8       62    267.9    207.6       91     0.000     0.000     0.000     0.000      107        0       42       25       15        2        5    15.670       69     39.9    6.254   -9.900     1.66    0.000    0.000       27        8     2086  Maize_Short_Soroca_7May_NonOptimum_26_MPI.PRM
 Tot(107)        7        5     2087    231.7    486.7   1144.3   428.00      0.0    228.4      3.3      0.0      0.0    112.9       48    246.4    191.5      100     0.000     0.000     0.000     0.000      107        0       42       25       14        8        0    15.512       73     40.3    6.249   -9.900     1.74    0.000    0.000       27        8     2087  Maize_Short_Soroca_7May_NonOptimum_26_MPI.PRM
 Tot(108)        7        5     2088    184.7    505.1   1218.8   427.00      0.0    177.9      6.8      3.2      0.0    118.7       54    265.5    207.3       92     0.000     0.000     0.000     0.000      107        0       42       25       10        7        5    15.804       69     40.0    6.324   -9.900     1.65    0.000    0.000       27        8     2088  Maize_Short_Soroca_7May_NonOptimum_26_MPI.PRM
 Tot(109)        7        5     2089    223.7    454.7   1054.7   427.00      0.0    222.7      1.0      0.0      0.0     98.5       51    244.2    189.1      100     0.000     0.000     0.000     0.000      107        0       42       25       21        3        0    15.408       74     40.1    6.174   -9.900     1.80    0.000    0.000       27        8     2089  Maize_Short_Soroca_7May_NonOptimum_26_MPI.PRM
 Tot(110)        7        5     2090    262.8    457.6   1031.7   426.00      0.0    241.7     21.1      4.2      0.0    102.2       50    238.5    184.7      100     0.000     0.000     0.000     0.000      107        0       42       25       19        4        0    15.263       74     40.2    6.129   -9.900     1.80    0.000    0.000       27        8     2090  Maize_Short_Soroca_7May_NonOptimum_26_MPI.PRM
 Tot(111)        7        5     2091    194.0    514.6   1211.2   425.00      0.0    191.7      2.3      5.6      0.0    131.5       61    268.0    208.8       89     0.000     0.000     0.000     0.000      107        0       42       25       10        6        7    15.131       66     40.1    6.072   -9.900     1.52    0.000    0.000       27        8     2091  Maize_Short_Soroca_7May_NonOptimum_26_MPI.PRM
 Tot(112)        7        5     2092    286.9    423.4   1015.6   425.00      0.0    279.4      7.5      3.9      0.0    137.8       76    234.2    180.7      100     0.000     0.000     0.000     0.000      107        0       42       25       21        3        0    15.894       75     40.2    6.386   -9.900     1.72    0.000    0.000       27        8     2092  Maize_Short_Soroca_7May_NonOptimum_26_MPI.PRM
 Tot(113)        7        5     2093    257.2    439.3   1013.2   424.00      0.0    249.7      7.5      4.1      0.0    110.5       63    252.6    195.4      100     0.000     0.000     0.000     0.000      107        0       42       25       20        1        0    16.243       75     40.0    6.498   -9.900     1.79    0.000    0.000       27        8     2093  Maize_Short_Soroca_7May_NonOptimum_26_MPI.PRM
 Tot(114)        7        5     2094    195.8    571.0   1261.5   424.00      0.0    189.0      6.8      0.0      0.0    106.6       43    293.4    227.9       89     0.000     0.000     0.000     0.000      107        0       42       25        9        4        7    14.888       65     39.7    5.915   -9.900     1.48    0.000    0.000       27        8     2094  Maize_Short_Soroca_7May_NonOptimum_26_MPI.PRM
 Tot(115)        7        5     2095    153.9    538.0   1168.0   423.00      0.0    153.6      0.3      1.4      0.0    116.4       45    225.7    178.9       82     0.000     0.000     0.000     0.000      107        0       42       25       18       23       12    11.734       53     40.5    4.755   -9.900     1.39    0.000    0.000       27        8     2095  Maize_Short_Soroca_7May_NonOptimum_26_MPI.PRM
 Tot(116)        7        5     2096    181.6    537.7   1224.4   423.00      0.0    180.7      0.9      0.0      0.0    108.6       49    281.2    218.0       88     0.000     0.000     0.000     0.000      107        0       42       25       13        7        8    15.101       64     40.1    6.060   -9.900     1.55    0.000    0.000       27        8     2096  Maize_Short_Soroca_7May_NonOptimum_26_MPI.PRM
 Tot(117)        7        5     2097    284.0    452.1   1097.7   422.00      0.0    278.7      5.3     13.0      0.0    132.1       73    265.4    203.9      100     0.000     0.000     0.000     0.000      107        0       42       25       17        0        0    16.645       75     40.0    6.658   -9.900     1.67    0.000    0.000       27        8     2097  Maize_Short_Soroca_7May_NonOptimum_26_MPI.PRM
 Tot(118)        7        5     2098    301.3    453.5   1122.5   422.00      0.0    284.0     17.3     28.9      0.0    148.3       82    266.3    206.9      100     0.000     0.000     0.000     0.000      107        0       42       25       16        1        0    16.474       75     40.0    6.594   -9.900     1.59    0.000    0.000       27        8     2098  Maize_Short_Soroca_7May_NonOptimum_26_MPI.PRM
 Tot(119)        7        5     2099    233.4    384.0    935.5   421.00      0.0    227.1      6.3     16.6      0.0    110.7       64    185.1    142.1      100     0.000     0.000     0.000     0.000      107        0       42       25       25        1        0    14.037       75     40.0    5.615   -9.900     1.90    0.000    0.000       27        8     2099  Maize_Short_Soroca_7May_NonOptimum_26_MPI.PRM
