AquaCrop 7.0 (August 2022) - Output created on (date) : 23-11-2022   at (time) : 11:55:56

    RunNr     Day1   Month1    Year1     Rain      ETo       GD     CO2      Irri   Infilt   Runoff    Drain   Upflow        E     E/Ex       Tr      TrW   Tr/Trx    SaltIn   SaltOut    SaltUp  SaltProf     Cycle   SaltStr  FertStr  WeedStr  TempStr   ExpStr   StoStr  BioMass  Brelative   HI    Y(dry)  Y(fresh)    WPet      Bin     Bout     DayN   MonthN    YearN
                                           mm       mm  degC.day    ppm        mm       mm       mm       mm       mm       mm        %       mm       mm        %    ton/ha    ton/ha    ton/ha    ton/ha      days       %        %        %        %        %        %    ton/ha        %       %    ton/ha   ton/ha    kg/m3   ton/ha   ton/ha
   Tot(1)       22        5     1981    112.7    489.0   1247.8   340.11      0.0    112.6      0.1      0.0      0.0     77.0       34    238.7    185.7       91     0.000     0.000     0.000     0.000      107        0       42       25       11        7        7    13.569       65     40.3    5.462   -9.900     1.73    0.000    0.000       11        9     1981  Maize_short_Chisinau_22May_NonOptimum_85_NCC.PRM
   Tot(2)       22        5     1982    204.3    456.0   1247.6   341.22      0.0    204.0      0.3      0.0      0.0    113.7       55    257.4    198.1      100     0.000     0.000     0.000     0.000      107        0       42       25        9        2        0    16.379       75     40.0    6.557   -9.900     1.77    0.000    0.000       11        9     1982  Maize_short_Chisinau_22May_NonOptimum_85_NCC.PRM
   Tot(3)       22        5     1983    263.2    457.8   1241.5   342.84      0.0    246.8     16.4     28.6      0.0    125.5       63    258.5    200.2      100     0.000     0.000     0.000     0.000      107        0       42       25       10        3        0    15.990       75     40.1    6.413   -9.900     1.67    0.000    0.000       11        9     1983  Maize_short_Chisinau_22May_NonOptimum_85_NCC.PRM
   Tot(4)       22        5     1984    214.8    437.7   1110.3   344.40      0.0    211.4      3.4      5.3      0.0    144.1       77    242.9    188.9      100     0.000     0.000     0.000     0.000      107        0       42       25       15        1        0    15.604       75     40.0    6.248   -9.900     1.61    0.000    0.000       11        9     1984  Maize_short_Chisinau_22May_NonOptimum_85_NCC.PRM
   Tot(5)       22        5     1985    293.3    457.2   1166.1   345.87      0.0    263.7     29.6     63.9      0.0    122.0       66    263.0    203.3       97     0.000     0.000     0.000     0.000      107        0       42       25       15        2        2    15.134       73     40.1    6.067   -9.900     1.58    0.000    0.000       11        9     1985  Maize_short_Chisinau_22May_NonOptimum_85_NCC.PRM
   Tot(6)       22        5     1986    182.0    520.8   1291.5   347.19      0.0    181.3      0.7      0.0      0.0    116.4       50    270.7    210.0       93     0.000     0.000     0.000     0.000      107        0       42       25        9        5        6    14.711       69     40.1    5.898   -9.900     1.52    0.000    0.000       11        9     1986  Maize_short_Chisinau_22May_NonOptimum_85_NCC.PRM
   Tot(7)       22        5     1987    250.7    477.0   1168.0   348.98      0.0    236.4     14.3     17.7      0.0    107.9       54    270.4    209.4      100     0.000     0.000     0.000     0.000      107        0       42       25       14        5        0    15.238       75     40.3    6.139   -9.900     1.62    0.000    0.000       11        9     1987  Maize_short_Chisinau_22May_NonOptimum_85_NCC.PRM
   Tot(8)       22        5     1988    311.4    459.2   1267.4   351.45      0.0    269.3     42.1     29.3      0.0    109.3       61    276.0    215.1       96     0.000     0.000     0.000     0.000      107        0       42       25       10        3        3    15.422       72     40.1    6.188   -9.900     1.61    0.000    0.000       11        9     1988  Maize_short_Chisinau_22May_NonOptimum_85_NCC.PRM
   Tot(9)       22        5     1989    328.6    451.3   1181.5   352.89      0.0    298.7     29.9      2.2      0.0    122.8       64    266.6    207.0      100     0.000     0.000     0.000     0.000      107        0       42       25       12        6        0    15.980       74     40.2    6.426   -9.900     1.65    0.000    0.000       11        9     1989  Maize_short_Chisinau_22May_NonOptimum_85_NCC.PRM
  Tot(10)       22        5     1990    157.0    493.1   1149.4   354.16      0.0    152.3      4.7     14.4      0.0    127.9       58    226.3    177.9       85     0.000     0.000     0.000     0.000      107        0       42       25       15       11       15    12.373       58     40.0    4.945   -9.900     1.40    0.000    0.000       11        9     1990  Maize_short_Chisinau_22May_NonOptimum_85_NCC.PRM
  Tot(11)       22        5     1991    405.5    420.3   1208.7   355.48      0.0    355.8     49.7     77.0      0.0    124.2       75    257.2    197.9      100     0.000     0.000     0.000     0.000      107        0       42       25       12        1        0    16.406       75     40.0    6.569   -9.900     1.72    0.000    0.000       11        9     1991  Maize_short_Chisinau_22May_NonOptimum_85_NCC.PRM
  Tot(12)       22        5     1992    188.3    518.5   1278.0   356.27      0.0    184.1      4.2      9.8      0.0    142.9       69    245.6    192.9       80     0.000     0.000     0.000     0.000      107        0       42       25       10       10       15    12.174       55     39.8    4.839   -9.900     1.25    0.000    0.000       11        9     1992  Maize_short_Chisinau_22May_NonOptimum_85_NCC.PRM
  Tot(13)       22        5     1993    166.0    491.7   1142.1   356.95      0.0    165.4      0.6      0.6      0.0    100.5       48    257.7    198.4       96     0.000     0.000     0.000     0.000      107        0       42       25       16        3        3    14.101       71     40.1    5.653   -9.900     1.58    0.000    0.000       11        9     1993  Maize_short_Chisinau_22May_NonOptimum_85_NCC.PRM
  Tot(14)       22        5     1994    259.6    519.0   1314.2   358.63      0.0    220.5     39.1     11.8      0.0    105.0       44    265.8    208.4       90     0.000     0.000     0.000     0.000      107        0       42       25       10       12        6    14.401       63     40.5    5.825   -9.900     1.57    0.000    0.000       11        9     1994  Maize_short_Chisinau_22May_NonOptimum_85_NCC.PRM
  Tot(15)       22        5     1995    240.9    497.5   1341.7   360.62      0.0    225.7     15.2      1.4      0.0     92.6       40    269.9    210.0       96     0.000     0.000     0.000     0.000      107        0       42       25        5        7        2    15.683       70     40.2    6.306   -9.900     1.74    0.000    0.000       11        9     1995  Maize_short_Chisinau_22May_NonOptimum_85_NCC.PRM
  Tot(16)       22        5     1996    178.3    510.0   1221.6   362.37      0.0    174.6      3.7      2.9      0.0     99.7       37    225.6    178.8       92     0.000     0.000     0.000     0.000      107        0       42       25       12       18        5    13.184       63     40.6    5.346   -9.900     1.64    0.000    0.000       11        9     1996  Maize_short_Chisinau_22May_NonOptimum_85_NCC.PRM
  Tot(17)       22        5     1997    330.1    417.1   1153.3   363.47      0.0    310.1     20.0      0.0      0.0    110.0       60    233.5    180.9      100     0.000     0.000     0.000     0.000      107        0       42       25       13        0        0    16.205       75     40.0    6.482   -9.900     1.89    0.000    0.000       11        9     1997  Maize_short_Chisinau_22May_NonOptimum_85_NCC.PRM
  Tot(18)       22        5     1998    213.1    479.8   1242.4   366.50      0.0    207.8      5.3      0.7      0.0    115.1       59    266.4    205.5       95     0.000     0.000     0.000     0.000      107        0       42       25       13        2        3    14.606       71     40.1    5.854   -9.900     1.53    0.000    0.000       11        9     1998  Maize_short_Chisinau_22May_NonOptimum_85_NCC.PRM
  Tot(19)       22        5     1999    155.4    516.5   1415.8   368.14      0.0    153.9      1.5      0.0      0.0    105.1       43    252.3    197.1       88     0.000     0.000     0.000     0.000      107        0       42       25        3       15        9    14.276       62     40.5    5.782   -9.900     1.62    0.000    0.000       11        9     1999  Maize_short_Chisinau_22May_NonOptimum_85_NCC.PRM
  Tot(20)       22        5     2000    200.0    540.4   1259.7   369.41      0.0    193.4      6.6      0.0      0.0     72.3       28    279.5    218.2       97     0.000     0.000     0.000     0.000      107        0       42       25       12        8        1    15.054       70     40.1    6.033   -9.900     1.72    0.000    0.000       11        9     2000  Maize_short_Chisinau_22May_NonOptimum_85_NCC.PRM
  Tot(21)       22        5     2001    281.1    504.5   1316.2   371.07      0.0    245.1     36.0     26.0      0.0    132.2       60    241.5    189.5       84     0.000     0.000     0.000     0.000      107        0       42       25        9        8       12    12.731       56     39.8    5.068   -9.900     1.36    0.000    0.000       11        9     2001  Maize_short_Chisinau_22May_NonOptimum_85_NCC.PRM
  Tot(22)       22        5     2002    297.2    513.7   1401.0   373.16      0.0    270.0     27.2      3.8      0.0    111.4       47    297.6    232.6      100     0.000     0.000     0.000     0.000      107        0       42       25        5       10        0    16.950       72     40.0    6.784   -9.900     1.66    0.000    0.000       11        9     2002  Maize_short_Chisinau_22May_NonOptimum_85_NCC.PRM
  Tot(23)       22        5     2003    199.3    543.0   1313.0   375.80      0.0    197.8      1.5      0.0      0.0     98.0       37    284.3    220.5       99     0.000     0.000     0.000     0.000      107        0       42       25        8        4        1    15.842       72     40.0    6.343   -9.900     1.66    0.000    0.000       11        9     2003  Maize_short_Chisinau_22May_NonOptimum_85_NCC.PRM
  Tot(24)       22        5     2004    212.6    500.0   1203.6   377.49      0.0    201.0     11.6      4.7      0.0    100.0       44    275.9    215.6      100     0.000     0.000     0.000     0.000      107        0       42       25       11        5        0    16.207       74     40.1    6.504   -9.900     1.73    0.000    0.000       11        9     2004  Maize_short_Chisinau_22May_NonOptimum_85_NCC.PRM
  Tot(25)       22        5     2005    280.2    489.9   1320.0   379.80      0.0    268.2     12.0      8.5      0.0    136.2       63    286.2    220.0      100     0.000     0.000     0.000     0.000      107        0       42       25        7        4        0    17.321       75     40.3    6.975   -9.900     1.65    0.000    0.000       11        9     2005  Maize_short_Chisinau_22May_NonOptimum_85_NCC.PRM
  Tot(26)       22        5     2006    278.5    526.4   1284.9   381.90      0.0    269.3      9.2     16.0      0.0    136.6       60    298.8    233.7       97     0.000     0.000     0.000     0.000      107        0       42       25       10       10        3    15.974       71     40.5    6.474   -9.900     1.49    0.000    0.000       11        9     2006  Maize_short_Chisinau_22May_NonOptimum_85_NCC.PRM
  Tot(27)       22        5     2007    161.9    617.8   1470.3   383.77      0.0    161.4      0.5      0.0      0.0    116.1       35    245.5    195.4       83     0.000     0.000     0.000     0.000      107        0       42       25        4       26       12    11.921       52     40.6    4.839   -9.900     1.34    0.000    0.000       11        9     2007  Maize_short_Chisinau_22May_NonOptimum_85_NCC.PRM
  Tot(28)       22        5     2008    182.6    561.4   1363.1   385.59      0.0    176.9      5.7      0.0      0.0    116.7       46    277.8    217.6       87     0.000     0.000     0.000     0.000      107        0       42       25        5        9       11    14.297       61     39.7    5.677   -9.900     1.44    0.000    0.000       11        9     2008  Maize_short_Chisinau_22May_NonOptimum_85_NCC.PRM
  Tot(29)       22        5     2009    196.0    575.6   1374.3   387.37      0.0    194.3      1.7      0.0      0.0    110.1       41    287.8    222.7       89     0.000     0.000     0.000     0.000      107        0       42       25        5       10        9    14.566       62     40.2    5.853   -9.900     1.47    0.000    0.000       11        9     2009  Maize_short_Chisinau_22May_NonOptimum_85_NCC.PRM
  Tot(30)       22        5     2010    257.3    510.9   1415.8   389.85      0.0    240.3     17.0     19.1      0.0    119.7       54    279.4    217.9       93     0.000     0.000     0.000     0.000      107        0       42       25        7        2        4    15.516       69     40.0    6.199   -9.900     1.55    0.000    0.000       11        9     2010  Maize_short_Chisinau_22May_NonOptimum_85_NCC.PRM
  Tot(31)       22        5     2011    216.4    549.6   1380.9   391.63      0.0    201.6     14.8     17.5      0.0    132.6       53    266.5    207.5       86     0.000     0.000     0.000     0.000      107        0       42       25        5        6       12    14.154       61     39.8    5.628   -9.900     1.41    0.000    0.000       11        9     2011  Maize_short_Chisinau_22May_NonOptimum_85_NCC.PRM
  Tot(32)       22        5     2012    177.6    615.9   1446.5   393.82      0.0    168.8      8.8     12.1      0.0    107.7       37    267.2    210.4       81     0.000     0.000     0.000     0.000      107        0       42       25        4       16       16    12.383       53     40.1    4.966   -9.900     1.32    0.000    0.000       11        9     2012  Maize_short_Chisinau_22May_NonOptimum_85_NCC.PRM
  Tot(33)       22        5     2013    299.8    518.6   1351.6   396.48      0.0    269.2     30.6     27.2      0.0    140.8       64    290.2    224.6       94     0.000     0.000     0.000     0.000      107        0       42       25        6        5        4    16.099       70     40.2    6.475   -9.900     1.50    0.000    0.000       11        9     2013  Maize_short_Chisinau_22May_NonOptimum_85_NCC.PRM
  Tot(34)       22        5     2014    198.3    560.2   1404.9   398.55      0.0    195.8      2.5      1.7      0.0    113.0       48    296.0    230.5       88     0.000     0.000     0.000     0.000      107        0       42       25        5        6       10    15.018       63     39.9    5.993   -9.900     1.47    0.000    0.000       11        9     2014  Maize_short_Chisinau_22May_NonOptimum_85_NCC.PRM
  Tot(35)       22        5     2015    123.3    607.4   1433.1   402.00      0.0    122.9      0.4      0.0      0.0    109.3       35    226.7    179.2       79     0.000     0.000     0.000     0.000      104        0       42       25        5       18       19    10.850       46     40.0    4.338   -9.900     1.29    0.000    0.000       11        9     2015  Maize_short_Chisinau_22May_NonOptimum_85_NCC.PRM
  Tot(36)       22        5     2016    224.9    558.8   1444.3   404.00      0.0    206.2     18.7     39.9      0.0    145.6       57    239.6    188.1       80     0.000     0.000     0.000     0.000      107        0       42       25        4       17       19    11.878       50     40.0    4.746   -9.900     1.23    0.000    0.000       11        9     2016  Maize_short_Chisinau_22May_NonOptimum_85_NCC.PRM
  Tot(37)       22        5     2017    256.1    554.9   1388.6   407.00      0.0    243.1     13.0      9.7      0.0    125.5       53    314.5    242.9       96     0.000     0.000     0.000     0.000      107        0       42       25        5        4        4    16.422       70     40.1    6.579   -9.900     1.49    0.000    0.000       11        9     2017  Maize_short_Chisinau_22May_NonOptimum_85_NCC.PRM
  Tot(38)       22        5     2018    285.1    545.5   1487.3   410.00      0.0    268.7     16.4     20.6      0.0    120.4       48    304.0    235.9       96     0.000     0.000     0.000     0.000      107        0       42       25        3        2        3    17.011       71     39.9    6.796   -9.900     1.60    0.000    0.000       11        9     2018  Maize_short_Chisinau_22May_NonOptimum_85_NCC.PRM
  Tot(39)       22        5     2019    214.6    570.8   1477.1   413.00      0.0    207.5      7.1     13.9      0.0    141.2       55    273.3    213.6       86     0.000     0.000     0.000     0.000      107        0       42       25        2       11       12    14.316       60     40.0    5.728   -9.900     1.38    0.000    0.000       11        9     2019  Maize_short_Chisinau_22May_NonOptimum_85_NCC.PRM
  Tot(40)       22        5     2020    102.1    587.7   1350.8   416.00      0.0     99.0      3.1      4.5      0.0    105.2       34    201.1    159.4       77     0.000     0.000     0.000     0.000       97        0       42       25       10       22       19     9.459       39     34.0    3.220   -9.900     1.06    0.000    0.000       11        9     2020  Maize_short_Chisinau_22May_NonOptimum_85_NCC.PRM
  Tot(41)       22        5     2021    132.2    563.3   1327.9   419.00      0.0    130.9      1.3      0.0      0.0    115.0       43    231.4    180.6       81     0.000     0.000     0.000     0.000      103        0       42       25        8       12       19    11.088       47     39.9    4.421   -9.900     1.28    0.000    0.000       11        9     2021  Maize_short_Chisinau_22May_NonOptimum_85_NCC.PRM
  Tot(42)       22        5     2022    189.4    462.3   1116.7   422.00      0.0    175.1     14.3     43.7      0.0    120.0       66    226.5    175.8       86     0.000     0.000     0.000     0.000      107        0       42       25       16        4       14    13.014       61     39.7    5.169   -9.900     1.49    0.000    0.000       11        9     2022  Maize_short_Chisinau_22May_NonOptimum_85_NCC.PRM
  Tot(43)       22        5     2023    159.5    517.8   1177.3   425.00      0.0    150.0      9.5      0.0      0.0     93.4       37    231.4    182.7       89     0.000     0.000     0.000     0.000      107        0       42       25       16       25        6    12.586       60     40.8    5.139   -9.900     1.58    0.000    0.000       11        9     2023  Maize_short_Chisinau_22May_NonOptimum_85_NCC.PRM
  Tot(44)       22        5     2024     87.5    653.4   1435.8   428.00      0.0     86.2      1.3      0.0      0.0     97.9       26    196.0    155.6       75     0.000     0.000     0.000     0.000       93        0       42       25        1       24       20     8.518       36     29.8    2.542   -9.900     0.87    0.000    0.000       11        9     2024  Maize_short_Chisinau_22May_NonOptimum_85_NCC.PRM
  Tot(45)       22        5     2025    184.7    530.5   1338.1   431.00      0.0    183.4      1.3      2.9      0.0    148.0       66    251.1    195.5       84     0.000     0.000     0.000     0.000      107        0       42       25        6        7       16    13.299       56     39.7    5.278   -9.900     1.32    0.000    0.000       11        9     2025  Maize_short_Chisinau_22May_NonOptimum_85_NCC.PRM
  Tot(46)       22        5     2026    204.6    453.1   1068.0   435.00      0.0    198.2      6.4      8.3      0.0    122.9       64    242.2    185.4      100     0.000     0.000     0.000     0.000      107        0       42       25       18        2        0    15.627       75     40.1    6.260   -9.900     1.71    0.000    0.000       11        9     2026  Maize_short_Chisinau_22May_NonOptimum_85_NCC.PRM
  Tot(47)       22        5     2027     59.1    558.7   1219.4   438.00      0.0     58.2      0.9      1.0      0.0     82.0       28    187.7    150.0       76     0.000     0.000     0.000     0.000       98        0       42       25       16       20       19     9.601       42     35.0    3.360   -9.900     1.25    0.000    0.000       11        9     2027  Maize_short_Chisinau_22May_NonOptimum_85_NCC.PRM
  Tot(48)       22        5     2028    147.9    577.0   1373.6   442.00      0.0    140.9      7.0     21.3      0.0    121.0       42    206.6    163.1       75     0.000     0.000     0.000     0.000      100        0       42       25        6       19       20     9.864       42     36.7    3.618   -9.900     1.13    0.000    0.000       11        9     2028  Maize_short_Chisinau_22May_NonOptimum_85_NCC.PRM
  Tot(49)       22        5     2029     60.2    592.4   1318.6   445.00      0.0     60.2      0.0      0.0      0.0     86.7       26    179.5    142.9       76     0.000     0.000     0.000     0.000       92        0       42       25       11       27       19     8.264       35     29.3    2.419   -9.900     0.92    0.000    0.000       11        9     2029  Maize_short_Chisinau_22May_NonOptimum_85_NCC.PRM
  Tot(50)       22        5     2030     79.6    653.7   1461.4   449.00      0.0     79.5      0.1      0.0      0.0    104.6       24    169.6    137.7       79     0.000     0.000     0.000     0.000       91        0       42       25        6       35       17     7.076       29     28.2    1.998   -9.900     0.74    0.000    0.000       11        9     2030  Maize_short_Chisinau_22May_NonOptimum_85_NCC.PRM
  Tot(51)       22        5     2031     93.5    578.1   1276.8   452.00      0.0     93.1      0.4      0.0      0.0    104.9       36    200.4    157.9       76     0.000     0.000     0.000     0.000       96        0       42       25        7       20       19     9.592       42     33.0    3.168   -9.900     1.07    0.000    0.000       11        9     2031  Maize_short_Chisinau_22May_NonOptimum_85_NCC.PRM
  Tot(52)       22        5     2032    120.4    600.8   1350.5   456.00      0.0    117.7      2.7      3.3      0.0    115.0       34    198.2    158.7       77     0.000     0.000     0.000     0.000      107        0       42       25       10       28       18     9.079       41     40.1    3.640   -9.900     1.16    0.000    0.000       11        9     2032  Maize_short_Chisinau_22May_NonOptimum_85_NCC.PRM
  Tot(53)       22        5     2033     63.2    598.5   1340.9   460.00      0.0     63.2      0.0      0.0      0.0     86.7       26    184.5    146.4       75     0.000     0.000     0.000     0.000       94        0       42       25        3       24       20     8.929       38     30.8    2.754   -9.900     1.04    0.000    0.000       11        9     2033  Maize_short_Chisinau_22May_NonOptimum_85_NCC.PRM
  Tot(54)       22        5     2034    114.6    529.1   1245.6   464.00      0.0    110.7      3.9     11.3      0.0    113.1       40    192.1    152.2       80     0.000     0.000     0.000     0.000      107        0       42       25        9       26       19    10.174       44     40.4    4.108   -9.900     1.35    0.000    0.000       11        9     2034  Maize_short_Chisinau_22May_NonOptimum_85_NCC.PRM
  Tot(55)       22        5     2035    121.9    613.2   1393.2   468.00      0.0    113.9      8.0     13.1      0.0    103.3       34    213.4    168.2       75     0.000     0.000     0.000     0.000       97        0       42       25        4       18       20    10.043       43     33.6    3.375   -9.900     1.07    0.000    0.000       11        9     2035  Maize_short_Chisinau_22May_NonOptimum_85_NCC.PRM
  Tot(56)       22        5     2036    165.8    479.9   1164.0   472.00      0.0    164.8      1.0      0.0      0.0    101.4       49    241.7    187.0       95     0.000     0.000     0.000     0.000      107        0       42       25       17        3        4    14.619       71     40.1    5.857   -9.900     1.71    0.000    0.000       11        9     2036  Maize_short_Chisinau_22May_NonOptimum_85_NCC.PRM
  Tot(57)       22        5     2037    221.9    560.6   1373.4   476.00      0.0    207.0     14.9     18.0      0.0    113.5       46    259.4    201.9       84     0.000     0.000     0.000     0.000      107        0       42       25        8       13       10    13.978       59     40.4    5.647   -9.900     1.51    0.000    0.000       11        9     2037  Maize_short_Chisinau_22May_NonOptimum_85_NCC.PRM
  Tot(58)       22        5     2038    116.0    620.1   1449.7   481.00      0.0    115.1      0.9      2.6      0.0    128.3       39    197.6    157.3       73     0.000     0.000     0.000     0.000       94        0       42       25        4       22       21     9.316       38     30.6    2.848   -9.900     0.89    0.000    0.000       11        9     2038  Maize_short_Chisinau_22May_NonOptimum_85_NCC.PRM
  Tot(59)       22        5     2039    101.5    610.9   1383.4   485.00      0.0    100.7      0.8      0.0      0.0    111.3       34    202.4    160.0       77     0.000     0.000     0.000     0.000       97        0       42       25        7       22       19     9.771       40     33.9    3.315   -9.900     1.06    0.000    0.000       11        9     2039  Maize_short_Chisinau_22May_NonOptimum_85_NCC.PRM
  Tot(60)       22        5     2040    151.7    595.3   1378.2   489.00      0.0    150.3      1.4      0.0      0.0    136.3       43    198.4    157.4       75     0.000     0.000     0.000     0.000       94        0       42       25        4       25       20     9.340       39     30.8    2.880   -9.900     0.91    0.000    0.000       11        9     2040  Maize_short_Chisinau_22May_NonOptimum_85_NCC.PRM
  Tot(61)       22        5     2041    221.3    518.1   1315.0   494.00      0.0    203.9     17.4     32.1      0.0    138.8       70    247.7    192.1       82     0.000     0.000     0.000     0.000      107        0       42       25        6        5       14    13.520       56     39.6    5.357   -9.900     1.39    0.000    0.000       11        9     2041  Maize_short_Chisinau_22May_NonOptimum_85_NCC.PRM
  Tot(62)       22        5     2042     17.2    701.8   1572.5   499.00      0.0     17.2      0.0      0.0      0.0     53.0       11    163.5    133.3       75     0.000     0.000     0.000     0.000       90        0       42       25        4       35       18     6.950       28     27.0    1.879   -9.900     0.88    0.000    0.000       11        9     2042  Maize_short_Chisinau_22May_NonOptimum_85_NCC.PRM
  Tot(63)       22        5     2043    111.2    557.5   1414.6   504.00      0.0    110.0      1.2      2.2      0.0     85.4       33    239.3    186.6       80     0.000     0.000     0.000     0.000      107        0       42       25        6       13       14    13.284       55     40.0    5.312   -9.900     1.64    0.000    0.000       11        9     2043  Maize_short_Chisinau_22May_NonOptimum_85_NCC.PRM
  Tot(64)       22        5     2044    179.4    550.2   1304.8   508.00      0.0    177.4      2.0      4.0      0.0    135.1       55    238.7    186.6       82     0.000     0.000     0.000     0.000      107        0       42       25       10       10       15    12.223       53     40.0    4.889   -9.900     1.31    0.000    0.000       11        9     2044  Maize_short_Chisinau_22May_NonOptimum_85_NCC.PRM
  Tot(65)       22        5     2045    131.8    562.1   1277.6   513.00      0.0    121.3     10.5     28.1      0.0    102.1       37    198.1    156.6       75     0.000     0.000     0.000     0.000       94        0       42       25       10       22       20     9.340       39     30.8    2.877   -9.900     0.99    0.000    0.000       11        9     2045  Maize_short_Chisinau_22May_NonOptimum_85_NCC.PRM
  Tot(66)       22        5     2046    202.1    580.8   1418.0   519.00      0.0    160.1     42.0     48.5      0.0    129.2       44    194.7    154.2       76     0.000     0.000     0.000     0.000       95        0       42       25        3       23       20     9.704       40     31.8    3.082   -9.900     0.98    0.000    0.000       11        9     2046  Maize_short_Chisinau_22May_NonOptimum_85_NCC.PRM
  Tot(67)       22        5     2047     81.7    564.6   1366.0   524.00      0.0     81.6      0.1      0.0      0.0    103.7       36    193.8    152.2       77     0.000     0.000     0.000     0.000       99        0       42       25        6       18       19    10.496       43     35.8    3.755   -9.900     1.27    0.000    0.000       11        9     2047  Maize_short_Chisinau_22May_NonOptimum_85_NCC.PRM
  Tot(68)       22        5     2048    167.3    590.8   1405.8   529.00      0.0    140.8     26.5     47.9      0.0     99.0       35    210.1    164.9       75     0.000     0.000     0.000     0.000       97        0       42       25        8       16       20    10.281       42     33.7    3.466   -9.900     1.13    0.000    0.000       11        9     2048  Maize_short_Chisinau_22May_NonOptimum_85_NCC.PRM
  Tot(69)       22        5     2049     81.2    532.6   1282.0   535.00      0.0     80.1      1.1      2.2      0.0     88.1       34    205.6    161.9       80     0.000     0.000     0.000     0.000      104        0       42       25        8       19       18    11.602       48     40.0    4.647   -9.900     1.58    0.000    0.000       11        9     2049  Maize_short_Chisinau_22May_NonOptimum_85_NCC.PRM
  Tot(70)       22        5     2050    112.9    507.9   1225.9   541.00      0.0    108.9      4.0     10.8      0.0     97.0       46    221.9    174.1       79     0.000     0.000     0.000     0.000      107        0       42       25       11       14       19    12.627       52     39.6    5.003   -9.900     1.57    0.000    0.000       11        9     2050  Maize_short_Chisinau_22May_NonOptimum_85_NCC.PRM
  Tot(71)       22        5     2051    241.9    451.4   1219.8   546.00      0.0    233.4      8.5      0.0      0.0    116.6       60    249.8    191.5      100     0.000     0.000     0.000     0.000      107        0       42       25        7        1        0    17.707       75     40.0    7.083   -9.900     1.93    0.000    0.000       11        9     2051  Maize_short_Chisinau_22May_NonOptimum_85_NCC.PRM
  Tot(72)       22        5     2052    180.2    611.1   1498.0   552.00      0.0    145.8     34.4     39.7      0.0    107.5       35    209.7    167.1       77     0.000     0.000     0.000     0.000       97        0       42       25        3       19       19    10.221       41     34.0    3.473   -9.900     1.11    0.000    0.000       11        9     2052  Maize_short_Chisinau_22May_NonOptimum_85_NCC.PRM
  Tot(73)       22        5     2053    128.0    523.6   1368.7   558.00      0.0    127.2      0.8      1.0      0.0    109.6       55    237.4    185.0       77     0.000     0.000     0.000     0.000      107        0       42       25        9       11       20    12.821       51     39.7    5.087   -9.900     1.47    0.000    0.000       11        9     2053  Maize_short_Chisinau_22May_NonOptimum_85_NCC.PRM
  Tot(74)       22        5     2054    217.5    563.6   1384.3   564.00      0.0    166.2     51.3     55.3      0.0    113.9       47    217.2    170.5       75     0.000     0.000     0.000     0.000      107        0       42       25        5       16       22    11.512       46     39.6    4.561   -9.900     1.38    0.000    0.000       11        9     2054  Maize_short_Chisinau_22May_NonOptimum_85_NCC.PRM
  Tot(75)       22        5     2055    197.1    549.8   1288.7   571.00      0.0    191.6      5.5      3.8      0.0    163.5       69    240.8    187.6       84     0.000     0.000     0.000     0.000      107        0       42       25        8        6       17    13.238       56     39.7    5.261   -9.900     1.30    0.000    0.000       11        9     2055  Maize_short_Chisinau_22May_NonOptimum_85_NCC.PRM
  Tot(76)       22        5     2056     75.2    703.7   1669.4   577.00      0.0     75.1      0.1      0.0      0.0    100.1       23    175.4    140.8       73     0.000     0.000     0.000     0.000       88        0       42       25        1       31       20     7.416       30     24.9    1.843   -9.900     0.69    0.000    0.000       11        9     2056  Maize_short_Chisinau_22May_NonOptimum_85_NCC.PRM
  Tot(77)       22        5     2057    127.4    569.3   1438.8   583.00      0.0    126.2      1.2      4.6      0.0    103.5       41    237.5    185.7       81     0.000     0.000     0.000     0.000      106        0       42       25        5       10       18    12.439       50     39.5    4.916   -9.900     1.44    0.000    0.000       11        9     2057  Maize_short_Chisinau_22May_NonOptimum_85_NCC.PRM
  Tot(78)       22        5     2058     46.6    626.8   1443.1   590.00      0.0     44.7      1.9      4.2      0.0     68.1       20    179.8    142.3       72     0.000     0.000     0.000     0.000       92        0       42       25        8       24       21     8.596       34     28.7    2.470   -9.900     1.00    0.000    0.000       11        9     2058  Maize_short_Chisinau_22May_NonOptimum_85_NCC.PRM
  Tot(79)       22        5     2059     82.2    653.2   1526.2   597.00      0.0     81.8      0.4      0.0      0.0    106.0       28    182.2    145.1       72     0.000     0.000     0.000     0.000       92        0       42       25        6       25       20     8.445       34     28.8    2.431   -9.900     0.85    0.000    0.000       11        9     2059  Maize_short_Chisinau_22May_NonOptimum_85_NCC.PRM
  Tot(80)       22        5     2060    189.7    468.8   1150.3   604.00      0.0    181.2      8.5      7.9      0.0    102.0       51    250.3    191.2      100     0.000     0.000     0.000     0.000      107        0       42       25       15        1        0    17.033       75     40.0    6.817   -9.900     1.94    0.000    0.000       11        9     2060  Maize_short_Chisinau_22May_NonOptimum_85_NCC.PRM
  Tot(81)       22        5     2061     96.4    566.2   1362.2   611.00      0.0     94.4      2.0      6.9      0.0     95.2       39    215.2    171.6       72     0.000     0.000     0.000     0.000      107        0       42       25        7       18       23    11.324       46     39.2    4.443   -9.900     1.43    0.000    0.000       11        9     2061  Maize_short_Chisinau_22May_NonOptimum_85_NCC.PRM
  Tot(82)       22        5     2062     94.9    637.5   1509.6   618.00      0.0     93.0      1.9      6.0      0.0    108.5       31    188.1    149.6       73     0.000     0.000     0.000     0.000       93        0       42       25        4       25       20     9.138       37     30.0    2.743   -9.900     0.93    0.000    0.000       11        9     2062  Maize_short_Chisinau_22May_NonOptimum_85_NCC.PRM
  Tot(83)       22        5     2063     79.7    652.4   1507.9   625.00      0.0     78.8      0.9      2.7      0.0     99.9       27    183.1    145.8       75     0.000     0.000     0.000     0.000       92        0       42       25        3       26       20     8.850       35     28.9    2.555   -9.900     0.91    0.000    0.000       11        9     2063  Maize_short_Chisinau_22May_NonOptimum_85_NCC.PRM
  Tot(84)       22        5     2064     73.6    613.1   1490.5   632.00      0.0     71.8      1.8      0.0      0.0     77.8       25    204.7    161.1       75     0.000     0.000     0.000     0.000       97        0       42       25        6       19       20    10.009       40     33.6    3.366   -9.900     1.21    0.000    0.000       11        9     2064  Maize_short_Chisinau_22May_NonOptimum_85_NCC.PRM
  Tot(85)       22        5     2065    204.5    613.7   1536.9   639.00      0.0    181.4     23.1     29.2      0.0    148.3       52    221.5    173.4       76     0.000     0.000     0.000     0.000      100        0       42       25        3       14       20    11.197       45     36.4    4.076   -9.900     1.10    0.000    0.000       11        9     2065  Maize_short_Chisinau_22May_NonOptimum_85_NCC.PRM
  Tot(86)       22        5     2066     38.9    676.2   1585.8   647.00      0.0     38.9      0.0      0.0      0.0     62.0       15    183.9    147.8       73     0.000     0.000     0.000     0.000      107        0       42       25        2       30       20     9.101       36     40.2    3.659   -9.900     1.49    0.000    0.000       11        9     2066  Maize_short_Chisinau_22May_NonOptimum_85_NCC.PRM
  Tot(87)       22        5     2067     90.1    686.5   1629.5   654.00      0.0     90.1      0.0      0.0      0.0    114.7       27    181.1    145.8       76     0.000     0.000     0.000     0.000       92        0       42       25        1       30       19     8.308       33     29.0    2.407   -9.900     0.82    0.000    0.000       11        9     2067  Maize_short_Chisinau_22May_NonOptimum_85_NCC.PRM
  Tot(88)       22        5     2068    104.9    600.5   1466.3   662.00      0.0    101.9      3.0      3.6      0.0    119.7       38    187.7    148.6       76     0.000     0.000     0.000     0.000       94        0       42       25        4       24       19     9.478       38     31.2    2.957   -9.900     0.96    0.000    0.000       11        9     2068  Maize_short_Chisinau_22May_NonOptimum_85_NCC.PRM
  Tot(89)       22        5     2069    117.8    528.6   1385.9   669.00      0.0    117.6      0.2      0.0      0.0    121.5       50    214.0    167.8       82     0.000     0.000     0.000     0.000      107        0       42       25        5       13       18    12.757       52     39.8    5.081   -9.900     1.51    0.000    0.000       11        9     2069  Maize_short_Chisinau_22May_NonOptimum_85_NCC.PRM
  Tot(90)       22        5     2070     86.1    600.4   1463.6   677.00      0.0     85.7      0.4      0.4      0.0     91.4       30    200.6    158.4       77     0.000     0.000     0.000     0.000       98        0       42       25        6       22       20    10.026       41     32.9    3.298   -9.900     1.14    0.000    0.000       11        9     2070  Maize_short_Chisinau_22May_NonOptimum_85_NCC.PRM
  Tot(91)       22        5     2071    180.7    581.4   1519.0   685.00      0.0    168.0     12.7     19.9      0.0    102.3       40    256.9    200.5       82     0.000     0.000     0.000     0.000      107        0       42       25        2       15       13    14.069       57     40.4    5.685   -9.900     1.58    0.000    0.000       11        9     2071  Maize_short_Chisinau_22May_NonOptimum_85_NCC.PRM
  Tot(92)       22        5     2072    222.7    527.2   1456.6   693.00      0.0    205.7     17.0     24.2      0.0    116.5       52    270.7    209.8       93     0.000     0.000     0.000     0.000      107        0       42       25        4        6        6    16.427       68     40.1    6.595   -9.900     1.70    0.000    0.000       11        9     2072  Maize_short_Chisinau_22May_NonOptimum_85_NCC.PRM
  Tot(93)       22        5     2073    150.5    588.8   1492.4   701.00      0.0    141.4      9.1     13.5      0.0    137.6       47    192.3    152.9       75     0.000     0.000     0.000     0.000       93        0       42       25        5       22       20     9.357       37     30.1    2.819   -9.900     0.87    0.000    0.000       11        9     2073  Maize_short_Chisinau_22May_NonOptimum_85_NCC.PRM
  Tot(94)       22        5     2074    122.2    678.0   1696.1   709.00      0.0    121.5      0.7      4.9      0.0    127.5       32    192.4    154.1       77     0.000     0.000     0.000     0.000       94        0       42       25        0       29       19     8.455       34     31.1    2.632   -9.900     0.83    0.000    0.000       11        9     2074  Maize_short_Chisinau_22May_NonOptimum_85_NCC.PRM
  Tot(95)       22        5     2075     92.2    608.4   1456.8   717.00      0.0     90.4      1.8      4.5      0.0    101.6       29    189.4    151.9       79     0.000     0.000     0.000     0.000       97        0       42       25        4       30       18     9.257       37     34.2    3.165   -9.900     1.16    0.000    0.000       11        9     2075  Maize_short_Chisinau_22May_NonOptimum_85_NCC.PRM
  Tot(96)       22        5     2076    194.3    550.6   1471.4   725.00      0.0    184.5      9.8     26.0      0.0    144.3       62    229.4    179.1       81     0.000     0.000     0.000     0.000      106        0       42       25        4        7       18    12.738       52     39.5    5.037   -9.900     1.35    0.000    0.000       11        9     2076  Maize_short_Chisinau_22May_NonOptimum_85_NCC.PRM
  Tot(97)       22        5     2077     96.0    659.9   1587.6   733.00      0.0     94.1      1.9      0.0      0.0     93.7       24    173.3    138.3       74     0.000     0.000     0.000     0.000       91        0       42       25        1       28       19     8.152       33     28.2    2.301   -9.900     0.91    0.000    0.000       11        9     2077  Maize_short_Chisinau_22May_NonOptimum_85_NCC.PRM
  Tot(98)       22        5     2078     19.7    668.1   1557.9   742.00      0.0     19.7      0.0      0.0      0.0     51.3       12    167.3    134.9       75     0.000     0.000     0.000     0.000       91        0       42       25        4       32       19     7.692       31     28.0    2.157   -9.900     1.01    0.000    0.000       11        9     2078  Maize_short_Chisinau_22May_NonOptimum_85_NCC.PRM
  Tot(99)       22        5     2079    125.0    555.9   1500.0   750.00      0.0    124.0      1.0      1.5      0.0    111.1       44    229.2    180.8       82     0.000     0.000     0.000     0.000      107        0       42       25        4       23       16    12.824       52     40.3    5.171   -9.900     1.52    0.000    0.000       11        9     2079  Maize_short_Chisinau_22May_NonOptimum_85_NCC.PRM
 Tot(100)       22        5     2080     98.3    546.6   1377.8   758.00      0.0     98.1      0.2      0.0      0.0    113.1       42    195.2    154.2       80     0.000     0.000     0.000     0.000      101        0       42       25       11       20       18    10.731       44     38.2    4.100   -9.900     1.33    0.000    0.000       11        9     2080  Maize_short_Chisinau_22May_NonOptimum_85_NCC.PRM
 Tot(101)       22        5     2081     68.3    628.8   1539.6   767.00      0.0     68.1      0.2      0.0      0.0     87.3       25    176.3    140.2       74     0.000     0.000     0.000     0.000       91        0       42       25        4       27       19     8.273       34     28.3    2.339   -9.900     0.91    0.000    0.000       11        9     2081  Maize_short_Chisinau_22May_NonOptimum_85_NCC.PRM
 Tot(102)       22        5     2082    246.3    495.1   1468.4   775.00      0.0    228.3     18.0     33.4      0.0    138.8       69    263.1    204.1       94     0.000     0.000     0.000     0.000      107        0       42       25        4       14        5    16.834       69     40.7    6.853   -9.900     1.71    0.000    0.000       11        9     2082  Maize_short_Chisinau_22May_NonOptimum_85_NCC.PRM
 Tot(103)       22        5     2083    126.8    609.3   1596.4   784.00      0.0    126.6      0.2      0.0      0.0    118.0       42    220.8    173.8       79     0.000     0.000     0.000     0.000      102        0       42       25        2       15       19    11.160       46     38.9    4.345   -9.900     1.28    0.000    0.000       11        9     2083  Maize_short_Chisinau_22May_NonOptimum_85_NCC.PRM
 Tot(104)       22        5     2084    102.9    538.0   1430.5   792.00      0.0    101.5      1.4      0.4      0.0     80.4       35    235.5    183.5       82     0.000     0.000     0.000     0.000      107        0       42       25        7        7       12    14.627       60     39.5    5.784   -9.900     1.83    0.000    0.000       11        9     2084  Maize_short_Chisinau_22May_NonOptimum_85_NCC.PRM
 Tot(105)       22        5     2085     68.7    736.3   1774.4   801.00      0.0     68.3      0.4      0.0      0.0     85.7       17    172.8    141.6       79     0.000     0.000     0.000     0.000      107        0       42       25        1       36       14     8.052       33     40.4    3.257   -9.900     1.26    0.000    0.000       11        9     2085  Maize_short_Chisinau_22May_NonOptimum_85_NCC.PRM
 Tot(106)       22        5     2086     97.5    596.1   1519.2   810.00      0.0     97.5      0.0      0.0      0.0     92.8       31    221.4    174.7       82     0.000     0.000     0.000     0.000      107        0       42       25        3       15       16    12.694       53     39.5    5.020   -9.900     1.60    0.000    0.000       11        9     2086  Maize_short_Chisinau_22May_NonOptimum_85_NCC.PRM
 Tot(107)       22        5     2087    154.9    562.9   1453.8   818.00      0.0    150.9      4.0     13.9      0.0    125.5       57    233.6    181.8       79     0.000     0.000     0.000     0.000      107        0       42       25        7        9       18    12.868       53     39.3    5.060   -9.900     1.41    0.000    0.000       11        9     2087  Maize_short_Chisinau_22May_NonOptimum_85_NCC.PRM
 Tot(108)       22        5     2088    226.3    660.0   1670.5   827.00      0.0    162.5     63.8     58.9      0.0    110.4       31    205.7    164.7       76     0.000     0.000     0.000     0.000      103        0       42       25        1       30       21     9.681       40     40.0    3.873   -9.900     1.24    0.000    0.000       11        9     2088  Maize_short_Chisinau_22May_NonOptimum_85_NCC.PRM
 Tot(109)       22        5     2089     67.5    694.5   1609.2   836.00      0.0     67.5      0.0      0.0      0.0     97.4       23    171.4    137.8       77     0.000     0.000     0.000     0.000       92        0       42       25        4       31       19     7.882       32     29.1    2.292   -9.900     0.86    0.000    0.000       11        9     2089  Maize_short_Chisinau_22May_NonOptimum_85_NCC.PRM
 Tot(110)       22        5     2090     85.5    649.6   1613.8   845.00      0.0     84.9      0.6      0.8      0.0    108.9       29    180.2    143.7       77     0.000     0.000     0.000     0.000       94        0       42       25        1       29       19     8.760       36     31.0    2.720   -9.900     0.96    0.000    0.000       11        9     2090  Maize_short_Chisinau_22May_NonOptimum_85_NCC.PRM
 Tot(111)       22        5     2091    197.5    570.9   1551.4   854.00      0.0    181.3     16.2     36.5      0.0    115.1       52    247.7    192.8       82     0.000     0.000     0.000     0.000      107        0       42       25        2        6       17    13.077       54     39.6    5.173   -9.900     1.43    0.000    0.000       11        9     2091  Maize_short_Chisinau_22May_NonOptimum_85_NCC.PRM
 Tot(112)       22        5     2092    145.8    652.6   1655.2   863.00      0.0    134.8     11.0     23.3      0.0    129.0       38    189.0    149.5       74     0.000     0.000     0.000     0.000       93        0       42       25        1       22       20     9.020       37     30.0    2.710   -9.900     0.87    0.000    0.000       11        9     2092  Maize_short_Chisinau_22May_NonOptimum_85_NCC.PRM
 Tot(113)       22        5     2093    153.4    646.6   1707.4   872.00      0.0    150.0      3.4      9.6      0.0    138.1       46    210.7    165.3       75     0.000     0.000     0.000     0.000       96        0       42       25        2       17       20     9.931       41     32.6    3.234   -9.900     0.94    0.000    0.000       11        9     2093  Maize_short_Chisinau_22May_NonOptimum_85_NCC.PRM
 Tot(114)       22        5     2094     76.5    650.6   1666.1   881.00      0.0     76.5      0.0      0.0      0.0    100.7       28    183.3    146.2       78     0.000     0.000     0.000     0.000       96        0       42       25        2       28       18     9.100       37     33.3    3.027   -9.900     1.10    0.000    0.000       11        9     2094  Maize_short_Chisinau_22May_NonOptimum_85_NCC.PRM
 Tot(115)       22        5     2095    207.6    581.9   1603.7   890.00      0.0    192.2     15.4     38.3      0.0    145.6       58    223.1    174.4       80     0.000     0.000     0.000     0.000      104        0       42       25        2       10       18    11.820       49     39.5    4.673   -9.900     1.27    0.000    0.000       11        9     2095  Maize_short_Chisinau_22May_NonOptimum_85_NCC.PRM
 Tot(116)       22        5     2096    117.5    694.6   1750.0   899.00      0.0    117.4      0.1      0.0      0.0    135.3       36    191.2    151.3       73     0.000     0.000     0.000     0.000       93        0       42       25        0       23       20     8.747       36     30.0    2.620   -9.900     0.82    0.000    0.000       11        9     2096  Maize_short_Chisinau_22May_NonOptimum_85_NCC.PRM
 Tot(117)       22        5     2097    119.7    701.4   1694.6   908.00      0.0    117.7      2.0      5.4      0.0    131.8       31    187.6    149.9       79     0.000     0.000     0.000     0.000       97        0       42       25        1       27       18     9.188       39     34.1    3.132   -9.900     0.98    0.000    0.000       11        9     2097  Maize_short_Chisinau_22May_NonOptimum_85_NCC.PRM
 Tot(118)       22        5     2098     66.0    629.4   1668.1   917.00      0.0     66.0      0.0      0.0      0.0     85.5       26    190.6    150.8       77     0.000     0.000     0.000     0.000       96        0       42       25        2       22       19     9.428       39     31.3    2.949   -9.900     1.07    0.000    0.000       11        9     2098  Maize_short_Chisinau_22May_NonOptimum_85_NCC.PRM
 Tot(119)       22        5     2099    148.2    571.0   1539.3   927.00      0.0    134.3     13.9     27.7      0.0     87.0       37    239.1    185.7       83     0.000     0.000     0.000     0.000      107        0       42       25        3        5       15    13.409       56     39.5    5.292   -9.900     1.62    0.000    0.000       11        9     2099  Maize_short_Chisinau_22May_NonOptimum_85_NCC.PRM
