AquaCrop 7.0 (August 2022) - Output created on (date) : 24-11-2022   at (time) : 10:26:43

    RunNr     Day1   Month1    Year1     Rain      ETo       GD     CO2      Irri   Infilt   Runoff    Drain   Upflow        E     E/Ex       Tr      TrW   Tr/Trx    SaltIn   SaltOut    SaltUp  SaltProf     Cycle   SaltStr  FertStr  WeedStr  TempStr   ExpStr   StoStr  BioMass  Brelative   HI    Y(dry)  Y(fresh)    WPet      Bin     Bout     DayN   MonthN    YearN
                                           mm       mm  degC.day    ppm        mm       mm       mm       mm       mm       mm        %       mm       mm        %    ton/ha    ton/ha    ton/ha    ton/ha      days       %        %        %        %        %        %    ton/ha        %       %    ton/ha   ton/ha    kg/m3   ton/ha   ton/ha
   Tot(1)        7        5     1981    330.3    462.9   1198.4   340.11      0.0    283.1     47.2     56.3      0.0    109.4       56    275.1    214.2      100     0.000     0.000     0.000     0.000      107        0       42       25       13        1        0    16.085       75     40.0    6.434   -9.900     1.67    0.000    0.000       27        8     1981  Maize_Short_Soroca_7May_NonOptimum_26_NCC.PRM
   Tot(2)        7        5     1982    276.4    461.1   1144.9   341.22      0.0    241.0     35.4     37.5      0.0     91.0       42    247.8    190.3      100     0.000     0.000     0.000     0.000      107        0       42       25       15        2        0    15.482       74     40.0    6.193   -9.900     1.83    0.000    0.000       27        8     1982  Maize_Short_Soroca_7May_NonOptimum_26_NCC.PRM
   Tot(3)        7        5     1983    225.7    446.3   1210.8   342.84      0.0    220.5      5.2      1.0      0.0     89.5       45    244.5    189.7      100     0.000     0.000     0.000     0.000      107        0       42       25        9        2        0    15.815       74     40.0    6.329   -9.900     1.90    0.000    0.000       27        8     1983  Maize_Short_Soroca_7May_NonOptimum_26_NCC.PRM
   Tot(4)        7        5     1984    347.7    420.8   1026.2   344.40      0.0    328.6     19.1     25.4      0.0    144.0       85    231.4    179.7      100     0.000     0.000     0.000     0.000      107        0       42       25       20        0        0    14.678       75     40.0    5.871   -9.900     1.56    0.000    0.000       27        8     1984  Maize_Short_Soroca_7May_NonOptimum_26_NCC.PRM
   Tot(5)        7        5     1985    364.9    454.7   1143.8   345.87      0.0    324.5     40.4     56.7      0.0    131.4       68    253.5    193.4      100     0.000     0.000     0.000     0.000      107        0       42       25       15        0        0    15.415       75     40.0    6.166   -9.900     1.60    0.000    0.000       27        8     1985  Maize_Short_Soroca_7May_NonOptimum_26_NCC.PRM
   Tot(6)        7        5     1986    164.7    525.3   1219.4   347.19      0.0    164.3      0.4      0.0      0.0     97.0       40    259.0    202.5       92     0.000     0.000     0.000     0.000      107        0       42       25       12        8        5    13.939       67     40.0    5.581   -9.900     1.57    0.000    0.000       27        8     1986  Maize_Short_Soroca_7May_NonOptimum_26_NCC.PRM
   Tot(7)        7        5     1987    273.7    465.1   1100.2   348.98      0.0    263.6     10.1     12.9      0.0    131.5       71    274.3    212.0      100     0.000     0.000     0.000     0.000      107        0       42       25       19        6        0    15.354       74     40.4    6.206   -9.900     1.53    0.000    0.000       27        8     1987  Maize_Short_Soroca_7May_NonOptimum_26_NCC.PRM
   Tot(8)        7        5     1988    304.7    440.0   1217.4   351.45      0.0    290.1     14.6     30.8      0.0    131.0       80    283.6    221.4      100     0.000     0.000     0.000     0.000      107        0       42       25       10        1        0    16.707       75     40.0    6.687   -9.900     1.61    0.000    0.000       27        8     1988  Maize_Short_Soroca_7May_NonOptimum_26_NCC.PRM
   Tot(9)        7        5     1989    282.2    464.6   1130.1   352.89      0.0    262.4     19.8     25.4      0.0    101.1       53    275.0    211.4      100     0.000     0.000     0.000     0.000      107        0       42       25       15        2        0    16.037       75     40.1    6.428   -9.900     1.71    0.000    0.000       27        8     1989  Maize_Short_Soroca_7May_NonOptimum_26_NCC.PRM
  Tot(10)        7        5     1990    185.9    477.8   1101.1   354.16      0.0    184.2      1.7      2.5      0.0    113.8       58    266.9    206.5       95     0.000     0.000     0.000     0.000      107        0       42       25       18        3        4    15.302       70     40.0    6.126   -9.900     1.61    0.000    0.000       27        8     1990  Maize_Short_Soroca_7May_NonOptimum_26_NCC.PRM
  Tot(11)        7        5     1991    456.1    412.7   1129.9   355.48      0.0    403.6     52.5     46.9      0.0    128.5       85    271.1    210.0      100     0.000     0.000     0.000     0.000      107        0       42       25       20        0        0    17.036       75     40.0    6.815   -9.900     1.71    0.000    0.000       27        8     1991  Maize_Short_Soroca_7May_NonOptimum_26_NCC.PRM
  Tot(12)        7        5     1992    184.4    507.5   1204.4   356.27      0.0    182.6      1.8      4.3      0.0    130.3       69    268.1    207.9       83     0.000     0.000     0.000     0.000      107        0       42       25       16        5       12    13.721       61     39.7    5.450   -9.900     1.37    0.000    0.000       27        8     1992  Maize_Short_Soroca_7May_NonOptimum_26_NCC.PRM
  Tot(13)        7        5     1993    225.5    480.7   1127.5   356.95      0.0    219.8      5.7      9.9      0.0    124.3       62    266.5    206.0       99     0.000     0.000     0.000     0.000      107        0       42       25       14        1        1    15.385       75     40.0    6.157   -9.900     1.58    0.000    0.000       27        8     1993  Maize_Short_Soroca_7May_NonOptimum_26_NCC.PRM
  Tot(14)        7        5     1994    261.0    521.2   1199.0   358.63      0.0    230.3     30.7     13.8      0.0    119.5       54    248.1    193.8       83     0.000     0.000     0.000     0.000      107        0       42       25       13        7       12    12.542       57     39.6    4.962   -9.900     1.35    0.000    0.000       27        8     1994  Maize_Short_Soroca_7May_NonOptimum_26_NCC.PRM
  Tot(15)        7        5     1995    305.1    494.6   1256.9   360.62      0.0    274.9     30.2     13.8      0.0    116.1       57    305.4    235.8      100     0.000     0.000     0.000     0.000      107        0       42       25        8        3        0    17.166       75     40.1    6.883   -9.900     1.63    0.000    0.000       27        8     1995  Maize_Short_Soroca_7May_NonOptimum_26_NCC.PRM
  Tot(16)        7        5     1996    285.8    501.1   1244.3   362.37      0.0    267.2     18.6      8.4      0.0     98.7       42    272.6    211.3      100     0.000     0.000     0.000     0.000      107        0       42       25       11        3        0    16.012       74     40.0    6.406   -9.900     1.73    0.000    0.000       27        8     1996  Maize_Short_Soroca_7May_NonOptimum_26_NCC.PRM
  Tot(17)        7        5     1997    299.6    455.8   1162.2   363.47      0.0    285.4     14.2      0.0      0.0    100.3       49    256.7    198.8      100     0.000     0.000     0.000     0.000      107        0       42       25       14        2        0    16.593       75     40.0    6.637   -9.900     1.86    0.000    0.000       27        8     1997  Maize_Short_Soroca_7May_NonOptimum_26_NCC.PRM
  Tot(18)        7        5     1998    308.7    445.2   1198.7   366.50      0.0    287.4     21.3      4.9      0.0    123.3       70    271.9    209.6      100     0.000     0.000     0.000     0.000      107        0       42       25       17        1        0    16.304       75     40.0    6.522   -9.900     1.65    0.000    0.000       27        8     1998  Maize_Short_Soroca_7May_NonOptimum_26_NCC.PRM
  Tot(19)        7        5     1999    155.2    512.9   1310.0   368.14      0.0    155.2      0.0      0.0      0.0     95.6       41    266.2    209.2       90     0.000     0.000     0.000     0.000      107        0       42       25       10       13        7    14.714       63     40.4    5.950   -9.900     1.64    0.000    0.000       27        8     1999  Maize_Short_Soroca_7May_NonOptimum_26_NCC.PRM
  Tot(20)        7        5     2000    240.2    521.6   1223.8   369.41      0.0    230.6      9.6      0.0      0.0     90.6       37    285.6    222.0      100     0.000     0.000     0.000     0.000      107        0       42       25       13        5        0    15.911       73     40.0    6.367   -9.900     1.69    0.000    0.000       27        8     2000  Maize_Short_Soroca_7May_NonOptimum_26_NCC.PRM
  Tot(21)        7        5     2001    255.6    491.7   1222.5   371.07      0.0    247.3      8.3     18.7      0.0    121.2       66    307.8    236.8       97     0.000     0.000     0.000     0.000      107        0       42       25       16        1        3    16.698       73     40.0    6.676   -9.900     1.56    0.000    0.000       27        8     2001  Maize_Short_Soroca_7May_NonOptimum_26_NCC.PRM
  Tot(22)        7        5     2002    365.4    509.4   1309.6   373.16      0.0    331.0     34.4      0.0      0.0    127.4       58    304.0    236.2       99     0.000     0.000     0.000     0.000      107        0       42       25       10       16        1    16.622       72     40.8    6.790   -9.900     1.57    0.000    0.000       27        8     2002  Maize_Short_Soroca_7May_NonOptimum_26_NCC.PRM
  Tot(23)        7        5     2003    329.8    556.2   1316.9   375.80      0.0    274.8     55.0      3.2      0.0     87.3       30    282.5    219.4      100     0.000     0.000     0.000     0.000      107        0       42       25        7        9        0    16.158       71     40.0    6.463   -9.900     1.75    0.000    0.000       27        8     2003  Maize_Short_Soroca_7May_NonOptimum_26_NCC.PRM
  Tot(24)        7        5     2004    239.4    487.9   1103.3   377.49      0.0    217.8     21.6      0.0      0.0     72.2       31    266.1    210.2      100     0.000     0.000     0.000     0.000      107        0       42       25       19       14        0    15.790       71     40.2    6.347   -9.900     1.88    0.000    0.000       27        8     2004  Maize_Short_Soroca_7May_NonOptimum_26_NCC.PRM
  Tot(25)        7        5     2005    262.5    469.1   1193.2   379.80      0.0    243.3     19.2     22.7      0.0    108.8       56    282.0    217.7      100     0.000     0.000     0.000     0.000      107        0       42       25       11        4        0    16.961       74     40.1    6.802   -9.900     1.74    0.000    0.000       27        8     2005  Maize_Short_Soroca_7May_NonOptimum_26_NCC.PRM
  Tot(26)        7        5     2006    315.6    495.5   1200.9   381.90      0.0    301.7     13.9     21.8      0.0    141.7       77    304.6    237.1       96     0.000     0.000     0.000     0.000      107        0       42       25       15        5        3    16.305       71     40.3    6.565   -9.900     1.47    0.000    0.000       27        8     2006  Maize_Short_Soroca_7May_NonOptimum_26_NCC.PRM
  Tot(27)        7        5     2007    152.4    612.6   1444.4   383.77      0.0    152.1      0.3      0.0      0.0    125.1       36    232.9    186.0       83     0.000     0.000     0.000     0.000      107        0       42       25        3       24       12    11.493       49     40.4    4.644   -9.900     1.30    0.000    0.000       27        8     2007  Maize_Short_Soroca_7May_NonOptimum_26_NCC.PRM
  Tot(28)        7        5     2008    341.8    530.8   1250.9   385.59      0.0    280.9     60.9      0.0      0.0    111.5       51    324.8    251.6       99     0.000     0.000     0.000     0.000      107        0       42       25        8       14        0    16.962       72     40.6    6.889   -9.900     1.58    0.000    0.000       27        8     2008  Maize_Short_Soroca_7May_NonOptimum_26_NCC.PRM
  Tot(29)        7        5     2009    220.9    551.9   1276.6   387.37      0.0    219.1      1.8      1.4      0.0    136.6       60    298.5    232.8       89     0.000     0.000     0.000     0.000      107        0       42       25       11        4       10    14.959       64     39.9    5.964   -9.900     1.37    0.000    0.000       27        8     2009  Maize_Short_Soroca_7May_NonOptimum_26_NCC.PRM
  Tot(30)        7        5     2010    341.4    489.0   1373.7   389.85      0.0    312.2     29.2     48.1      0.0    130.7       71    315.5    242.4       99     0.000     0.000     0.000     0.000      107        0       42       25        8        0        0    17.689       75     40.0    7.076   -9.900     1.59    0.000    0.000       27        8     2010  Maize_Short_Soroca_7May_NonOptimum_26_NCC.PRM
  Tot(31)        7        5     2011    187.9    543.3   1287.2   391.63      0.0    185.0      2.9      1.0      0.0     95.4       38    289.1    225.3       96     0.000     0.000     0.000     0.000      107        0       42       25        8        5        3    15.927       70     40.1    6.380   -9.900     1.66    0.000    0.000       27        8     2011  Maize_Short_Soroca_7May_NonOptimum_26_NCC.PRM
  Tot(32)        7        5     2012    144.1    600.6   1390.6   393.82      0.0    143.9      0.2      0.0      0.0    126.5       41    224.5    180.3       78     0.000     0.000     0.000     0.000      107        0       42       25        8       27       16    10.463       45     40.3    4.212   -9.900     1.20    0.000    0.000       27        8     2012  Maize_Short_Soroca_7May_NonOptimum_26_NCC.PRM
  Tot(33)        7        5     2013    224.9    523.6   1339.0   396.48      0.0    216.4      8.5     10.5      0.0    145.5       69    271.1    210.1       85     0.000     0.000     0.000     0.000      107        0       42       25        6        4       11    14.795       62     39.5    5.848   -9.900     1.40    0.000    0.000       27        8     2013  Maize_Short_Soroca_7May_NonOptimum_26_NCC.PRM
  Tot(34)        7        5     2014    310.9    505.5   1289.2   398.55      0.0    284.3     26.6     17.9      0.0    125.3       62    311.0    240.4      100     0.000     0.000     0.000     0.000      107        0       42       25        9        5        0    17.066       74     40.1    6.845   -9.900     1.57    0.000    0.000       27        8     2014  Maize_Short_Soroca_7May_NonOptimum_26_NCC.PRM
  Tot(35)        7        5     2015     53.8    613.9   1324.9   401.00      0.0     53.8      0.0      0.2      0.0     81.0       23    188.9    152.1       77     0.000     0.000     0.000     0.000       98        0       42       25        8       27       19     8.990       38     35.0    3.146   -9.900     1.17    0.000    0.000       27        8     2015  Maize_Short_Soroca_7May_NonOptimum_26_NCC.PRM
  Tot(36)        7        5     2016    260.0    524.9   1288.5   403.00      0.0    257.7      2.3      0.0      0.0    146.2       78    314.3    240.9       91     0.000     0.000     0.000     0.000      107        0       42       25       12        3        7    15.831       67     40.1    6.342   -9.900     1.38    0.000    0.000       27        8     2016  Maize_Short_Soroca_7May_NonOptimum_26_NCC.PRM
  Tot(37)        7        5     2017    198.7    557.0   1274.9   405.00      0.0    197.7      1.0      0.3      0.0    125.5       55    288.9    226.5       86     0.000     0.000     0.000     0.000      107        0       42       25       10        8       10    14.814       63     40.0    5.920   -9.900     1.43    0.000    0.000       27        8     2017  Maize_Short_Soroca_7May_NonOptimum_26_NCC.PRM
  Tot(38)        7        5     2018    243.9    523.5   1389.5   408.00      0.0    231.6     12.3      0.0      0.0     92.6       38    294.9    227.1      100     0.000     0.000     0.000     0.000      107        0       42       25        7        5        0    17.113       73     40.0    6.847   -9.900     1.77    0.000    0.000       27        8     2018  Maize_Short_Soroca_7May_NonOptimum_26_NCC.PRM
  Tot(39)        7        5     2019    283.0    528.5   1353.3   410.00      0.0    260.1     22.9     36.0      0.0    154.5       77    289.8    227.1       87     0.000     0.000     0.000     0.000      107        0       42       25        4        5       10    15.346       65     39.9    6.123   -9.900     1.38    0.000    0.000       27        8     2019  Maize_Short_Soroca_7May_NonOptimum_26_NCC.PRM
  Tot(40)        7        5     2020    249.9    465.3   1088.3   412.00      0.0    247.0      2.9      2.0      0.0    142.7       73    254.1    196.5      100     0.000     0.000     0.000     0.000      107        0       42       25       16        1        0    15.990       75     40.1    6.409   -9.900     1.61    0.000    0.000       27        8     2020  Maize_Short_Soroca_7May_NonOptimum_26_NCC.PRM
  Tot(41)        7        5     2021    265.1    476.9   1010.2   414.00      0.0    224.4     40.7     68.8      0.0    124.5       79    250.2    193.1       85     0.000     0.000     0.000     0.000      107        0       42       25       26        1        9    13.528       65     39.7    5.367   -9.900     1.43    0.000    0.000       27        8     2021  Maize_Short_Soroca_7May_NonOptimum_26_NCC.PRM
  Tot(42)        7        5     2022    268.8    583.4   1361.5   417.00      0.0    243.1     25.7     44.2      0.0    177.6       65    229.0    181.0       77     0.000     0.000     0.000     0.000       99        0       42       25        7       17       20    10.523       44     35.7    3.756   -9.900     0.95    0.000    0.000       27        8     2022  Maize_Short_Soroca_7May_NonOptimum_26_NCC.PRM
  Tot(43)        7        5     2023    197.9    486.7   1112.2   419.00      0.0    195.9      2.0      1.4      0.0    121.9       71    284.4    219.4       91     0.000     0.000     0.000     0.000      107        0       42       25       16        4        6    15.723       68     40.1    6.311   -9.900     1.55    0.000    0.000       27        8     2023  Maize_Short_Soroca_7May_NonOptimum_26_NCC.PRM
  Tot(44)        7        5     2024    106.4    508.0   1097.8   421.00      0.0    105.5      0.9      0.4      0.0    103.9       54    224.3    174.4       79     0.000     0.000     0.000     0.000      107        0       42       25       19        5       16    12.127       56     39.4    4.784   -9.900     1.46    0.000    0.000       27        8     2024  Maize_Short_Soroca_7May_NonOptimum_26_NCC.PRM
  Tot(45)        7        5     2025    229.9    487.7   1133.2   423.00      0.0    209.2     20.7     39.6      0.0    112.1       69    276.2    212.3       87     0.000     0.000     0.000     0.000      107        0       42       25       15        3        9    14.645       65     39.9    5.841   -9.900     1.50    0.000    0.000       27        8     2025  Maize_Short_Soroca_7May_NonOptimum_26_NCC.PRM
  Tot(46)        7        5     2026    210.5    529.6   1108.5   424.00      0.0    207.3      3.2      3.3      0.0    147.4       75    267.5    207.0       84     0.000     0.000     0.000     0.000      107        0       42       25       17        3       10    14.190       63     39.4    5.590   -9.900     1.35    0.000    0.000       27        8     2026  Maize_Short_Soroca_7May_NonOptimum_26_NCC.PRM
  Tot(47)        7        5     2027    222.8    577.1   1387.8   426.00      0.0    222.3      0.5      0.0      0.0    154.1       66    290.6    226.6       84     0.000     0.000     0.000     0.000      107        0       42       25        5        7       13    14.230       60     39.7    5.652   -9.900     1.27    0.000    0.000       27        8     2027  Maize_Short_Soroca_7May_NonOptimum_26_NCC.PRM
  Tot(48)        7        5     2028    203.4    529.1   1209.9   428.00      0.0    202.9      0.5      0.0      0.0    110.1       49    288.9    224.3       92     0.000     0.000     0.000     0.000      107        0       42       25       14       15        6    15.143       64     40.5    6.132   -9.900     1.54    0.000    0.000       27        8     2028  Maize_Short_Soroca_7May_NonOptimum_26_NCC.PRM
  Tot(49)        7        5     2029    297.5    429.1    928.0   429.00      0.0    265.6     31.9     53.9      0.0    123.0       78    249.5    191.6      100     0.000     0.000     0.000     0.000      107        0       42       25       26        0        0    15.692       75     40.0    6.277   -9.900     1.69    0.000    0.000       27        8     2029  Maize_Short_Soroca_7May_NonOptimum_26_NCC.PRM
  Tot(50)        7        5     2030    184.0    572.6   1230.1   431.00      0.0    176.4      7.6      0.0      0.0    110.9       45    286.4    226.3       87     0.000     0.000     0.000     0.000      107        0       42       25       14       13        9    14.565       62     40.1    5.848   -9.900     1.47    0.000    0.000       27        8     2030  Maize_Short_Soroca_7May_NonOptimum_26_NCC.PRM
  Tot(51)        7        5     2031    133.4    570.5   1287.5   432.00      0.0    131.3      2.1      3.3      0.0    119.6       48    229.1    180.0       78     0.000     0.000     0.000     0.000      103        0       42       25       12       12       19    11.131       47     39.2    4.366   -9.900     1.26    0.000    0.000       27        8     2031  Maize_Short_Soroca_7May_NonOptimum_26_NCC.PRM
  Tot(52)        7        5     2032    209.7    490.4   1199.2   433.00      0.0    202.6      7.1     17.7      0.0    113.7       65    283.7    218.2       91     0.000     0.000     0.000     0.000      107        0       42       25       12        1        6    15.868       69     39.9    6.333   -9.900     1.59    0.000    0.000       27        8     2032  Maize_Short_Soroca_7May_NonOptimum_26_NCC.PRM
  Tot(53)        7        5     2033    155.0    506.5   1147.2   435.00      0.0    154.9      0.1      0.0      0.0    107.3       60    259.0    201.6       82     0.000     0.000     0.000     0.000      107        0       42       25       20        4       12    13.984       61     39.5    5.520   -9.900     1.51    0.000    0.000       27        8     2033  Maize_Short_Soroca_7May_NonOptimum_26_NCC.PRM
  Tot(54)        7        5     2034    317.0    480.3   1094.3   436.00      0.0    284.3     32.7     46.3      0.0    149.7       88    277.0    213.5       95     0.000     0.000     0.000     0.000      107        0       42       25       18        1        3    15.204       72     40.0    6.076   -9.900     1.42    0.000    0.000       27        8     2034  Maize_Short_Soroca_7May_NonOptimum_26_NCC.PRM
  Tot(55)        7        5     2035    178.9    528.5   1141.4   437.00      0.0    174.1      4.8      9.5      0.0    105.1       52    278.0    215.4       88     0.000     0.000     0.000     0.000      107        0       42       25       16        5        9    14.632       65     39.9    5.832   -9.900     1.52    0.000    0.000       27        8     2035  Maize_Short_Soroca_7May_NonOptimum_26_NCC.PRM
  Tot(56)        7        5     2036    281.2    447.3   1014.0   438.00      0.0    254.6     26.6     56.1      0.0    107.6       70    271.0    208.4      100     0.000     0.000     0.000     0.000      107        0       42       25       22        1        0    16.144       75     40.0    6.460   -9.900     1.71    0.000    0.000       27        8     2036  Maize_Short_Soroca_7May_NonOptimum_26_NCC.PRM
  Tot(57)        7        5     2037    159.1    497.3   1210.0   438.00      0.0    155.1      4.0      2.6      0.0    122.1       61    251.6    196.4       85     0.000     0.000     0.000     0.000      107        0       42       25       11        6       11    14.777       63     39.8    5.887   -9.900     1.57    0.000    0.000       27        8     2037  Maize_Short_Soroca_7May_NonOptimum_26_NCC.PRM
  Tot(58)        7        5     2038    176.3    595.7   1368.5   439.00      0.0    174.1      2.2      0.0      0.0    139.1       51    257.3    201.9       81     0.000     0.000     0.000     0.000      107        0       42       25        5        8       17    12.892       54     39.3    5.061   -9.900     1.28    0.000    0.000       27        8     2038  Maize_Short_Soroca_7May_NonOptimum_26_NCC.PRM
  Tot(59)        7        5     2039    209.3    467.3   1052.7   440.00      0.0    203.7      5.6     10.0      0.0    123.5       64    253.3    196.6       95     0.000     0.000     0.000     0.000      107        0       42       25       18        5        3    15.150       71     40.1    6.073   -9.900     1.61    0.000    0.000       27        8     2039  Maize_Short_Soroca_7May_NonOptimum_26_NCC.PRM
  Tot(60)        7        5     2040    136.8    607.8   1322.0   440.00      0.0    135.8      1.0      2.3      0.0    123.8       49    236.0    184.4       74     0.000     0.000     0.000     0.000      106        0       42       25       12        6       20    11.451       49     38.5    4.412   -9.900     1.23    0.000    0.000       27        8     2040  Maize_Short_Soroca_7May_NonOptimum_26_NCC.PRM
  Tot(61)        7        5     2041    284.2    411.5   1050.0   441.00      0.0    278.0      6.2     11.1      0.0    135.8       88    242.5    184.9      100     0.000     0.000     0.000     0.000      107        0       42       25       19        0        0    16.498       75     40.0    6.604   -9.900     1.75    0.000    0.000       27        8     2041  Maize_Short_Soroca_7May_NonOptimum_26_NCC.PRM
  Tot(62)        7        5     2042    153.1    539.7   1256.8   441.00      0.0    145.1      8.0     15.5      0.0    135.0       61    218.1    172.5       75     0.000     0.000     0.000     0.000      102        0       42       25       11       12       20    11.043       46     38.0    4.202   -9.900     1.20    0.000    0.000       27        8     2042  Maize_Short_Soroca_7May_NonOptimum_26_NCC.PRM
  Tot(63)        7        5     2043    198.6    441.6   1016.8   441.00      0.0    192.5      6.1     18.0      0.0    127.3       82    254.7    195.7       94     0.000     0.000     0.000     0.000      107        0       42       25       22        3        5    15.535       71     40.1    6.235   -9.900     1.63    0.000    0.000       27        8     2043  Maize_Short_Soroca_7May_NonOptimum_26_NCC.PRM
  Tot(64)        7        5     2044    189.1    521.0   1179.4   442.00      0.0    183.9      5.2     15.1      0.0    133.8       72    255.9    199.4       81     0.000     0.000     0.000     0.000      107        0       42       25       15        4       14    13.309       58     39.5    5.263   -9.900     1.35    0.000    0.000       27        8     2044  Maize_Short_Soroca_7May_NonOptimum_26_NCC.PRM
  Tot(65)        7        5     2045    179.3    503.2   1141.0   442.00      0.0    170.1      9.2     17.8      0.0    137.2       70    237.4    184.5       82     0.000     0.000     0.000     0.000      107        0       42       25       12        4       15    13.313       59     39.4    5.244   -9.900     1.40    0.000    0.000       27        8     2045  Maize_Short_Soroca_7May_NonOptimum_26_NCC.PRM
  Tot(66)        7        5     2046    193.6    591.3   1373.6   442.00      0.0    177.3     16.3     13.0      0.0    152.8       60    235.7    184.3       76     0.000     0.000     0.000     0.000      104        0       42       25        6        7       20    11.821       49     38.6    4.563   -9.900     1.18    0.000    0.000       27        8     2046  Maize_Short_Soroca_7May_NonOptimum_26_NCC.PRM
  Tot(67)        7        5     2047    273.9    415.0    985.2   442.00      0.0    253.5     20.4     36.8      0.0    134.6       90    249.8    190.2      100     0.000     0.000     0.000     0.000      107        0       42       25       22        0        0    16.752       76     40.0    6.703   -9.900     1.74    0.000    0.000       27        8     2047  Maize_Short_Soroca_7May_NonOptimum_26_NCC.PRM
  Tot(68)        7        5     2048    220.7    488.7   1119.4   442.00      0.0    213.4      7.3      8.1      0.0    124.1       62    250.5    197.7       88     0.000     0.000     0.000     0.000      107        0       42       25       16        7        7    13.766       64     40.0    5.509   -9.900     1.47    0.000    0.000       27        8     2048  Maize_Short_Soroca_7May_NonOptimum_26_NCC.PRM
  Tot(69)        7        5     2049    192.0    518.5   1199.7   443.00      0.0    185.8      6.2      5.7      0.0    150.8       71    243.4    188.9       81     0.000     0.000     0.000     0.000      107        0       42       25       13       12       14    13.587       58     40.1    5.451   -9.900     1.38    0.000    0.000       27        8     2049  Maize_Short_Soroca_7May_NonOptimum_26_NCC.PRM
  Tot(70)        7        5     2050     83.7    540.4   1147.8   443.00      0.0     83.1      0.6      1.2      0.0    102.2       42    202.6    161.0       75     0.000     0.000     0.000     0.000      102        0       42       25       20       16       20    10.853       46     38.1    4.131   -9.900     1.36    0.000    0.000       27        8     2050  Maize_Short_Soroca_7May_NonOptimum_26_NCC.PRM
  Tot(71)        7        5     2051    197.0    511.6   1223.4   443.00      0.0    189.6      7.4     17.0      0.0    132.2       70    253.2    196.5       81     0.000     0.000     0.000     0.000      107        0       42       25       14        5       14    13.744       59     39.5    5.431   -9.900     1.41    0.000    0.000       27        8     2051  Maize_Short_Soroca_7May_NonOptimum_26_NCC.PRM
  Tot(72)        7        5     2052    356.5    429.8   1024.6   443.00      0.0    317.8     38.7     18.3      0.0    125.3       69    239.1    185.2      100     0.000     0.000     0.000     0.000      107        0       42       25       24        1        0    15.833       75     40.0    6.335   -9.900     1.74    0.000    0.000       27        8     2052  Maize_Short_Soroca_7May_NonOptimum_26_NCC.PRM
  Tot(73)        7        5     2053    243.2    484.5   1225.0   443.00      0.0    226.6     16.6     28.0      0.0    140.3       78    273.3    210.8       90     0.000     0.000     0.000     0.000      107        0       42       25        9        1        7    16.036       68     39.9    6.394   -9.900     1.55    0.000    0.000       27        8     2053  Maize_Short_Soroca_7May_NonOptimum_26_NCC.PRM
  Tot(74)        7        5     2054    149.3    593.1   1264.3   443.00      0.0    147.0      2.3      4.4      0.0    149.1       53    211.6    166.9       75     0.000     0.000     0.000     0.000       99        0       42       25        8       15       20    10.117       43     35.5    3.589   -9.900     1.00    0.000    0.000       27        8     2054  Maize_Short_Soroca_7May_NonOptimum_26_NCC.PRM
  Tot(75)        7        5     2055    145.1    515.1   1195.6   443.00      0.0    143.3      1.8      5.6      0.0    108.7       56    245.9    190.2       81     0.000     0.000     0.000     0.000      107        0       42       25       12        5       13    13.197       58     39.3    5.181   -9.900     1.46    0.000    0.000       27        8     2055  Maize_Short_Soroca_7May_NonOptimum_26_NCC.PRM
  Tot(76)        7        5     2056    242.4    526.4   1212.4   442.00      0.0    240.2      2.2      0.0      0.0    124.6       63    304.9    235.3       92     0.000     0.000     0.000     0.000      107        0       42       25       11        2        5    16.276       69     39.9    6.489   -9.900     1.51    0.000    0.000       27        8     2056  Maize_Short_Soroca_7May_NonOptimum_26_NCC.PRM
  Tot(77)        7        5     2057    313.4    473.3   1191.1   442.00      0.0    304.3      9.1      1.2      0.0    144.2       82    301.0    231.3      100     0.000     0.000     0.000     0.000      107        0       42       25       13        1        0    17.751       75     40.0    7.100   -9.900     1.59    0.000    0.000       27        8     2057  Maize_Short_Soroca_7May_NonOptimum_26_NCC.PRM
  Tot(78)        7        5     2058    167.5    536.3   1241.4   442.00      0.0    164.5      3.0      5.9      0.0    111.7       48    255.1    202.8       85     0.000     0.000     0.000     0.000      107        0       42       25       14       20       11    13.326       58     40.5    5.400   -9.900     1.47    0.000    0.000       27        8     2058  Maize_Short_Soroca_7May_NonOptimum_26_NCC.PRM
  Tot(79)        7        5     2059    225.0    508.4   1197.2   442.00      0.0    220.3      4.7      5.8      0.0    146.3       72    271.5    208.7       92     0.000     0.000     0.000     0.000      107        0       42       25       11        4        7    14.984       68     40.0    5.993   -9.900     1.43    0.000    0.000       27        8     2059  Maize_Short_Soroca_7May_NonOptimum_26_NCC.PRM
  Tot(80)        7        5     2060    153.2    492.2   1174.8   442.00      0.0    153.0      0.2      0.6      0.0    120.4       68    251.9    197.2       83     0.000     0.000     0.000     0.000      107        0       42       25       15        7       12    14.188       61     40.0    5.670   -9.900     1.52    0.000    0.000       27        8     2060  Maize_Short_Soroca_7May_NonOptimum_26_NCC.PRM
  Tot(81)        7        5     2061    133.4    568.2   1221.7   441.00      0.0    129.7      3.7      5.0      0.0    133.9       49    204.5    161.5       76     0.000     0.000     0.000     0.000      101        0       42       25       11       18       19    10.292       43     37.9    3.905   -9.900     1.16    0.000    0.000       27        8     2061  Maize_Short_Soroca_7May_NonOptimum_26_NCC.PRM
  Tot(82)        7        5     2062    138.6    558.2   1213.2   441.00      0.0    138.6      0.0      0.0      0.0     99.6       38    254.1    198.1       85     0.000     0.000     0.000     0.000      107        0       42       25        9       13       12    13.319       58     40.2    5.351   -9.900     1.51    0.000    0.000       27        8     2062  Maize_Short_Soroca_7May_NonOptimum_26_NCC.PRM
  Tot(83)        7        5     2063     70.5    604.2   1209.4   441.00      0.0     70.5      0.0      0.0      0.0     76.8       29    216.3    169.2       73     0.000     0.000     0.000     0.000      101        0       42       25       19        9       21    10.312       44     36.6    3.777   -9.900     1.29    0.000    0.000       27        8     2063  Maize_Short_Soroca_7May_NonOptimum_26_NCC.PRM
  Tot(84)        7        5     2064    195.0    519.8   1227.3   440.00      0.0    191.8      3.2      1.7      0.0    134.9       67    270.0    209.1       86     0.000     0.000     0.000     0.000      107        0       42       25       13        7        9    14.671       64     40.0    5.866   -9.900     1.45    0.000    0.000       27        8     2064  Maize_Short_Soroca_7May_NonOptimum_26_NCC.PRM
  Tot(85)        7        5     2065    163.8    538.9   1223.0   440.00      0.0    163.8      0.0      0.0      0.0    137.8       64    250.0    193.9       81     0.000     0.000     0.000     0.000      107        0       42       25       10        4       12    13.779       62     39.5    5.449   -9.900     1.40    0.000    0.000       27        8     2065  Maize_Short_Soroca_7May_NonOptimum_26_NCC.PRM
  Tot(86)        7        5     2066    126.9    609.8   1249.8   440.00      0.0    124.7      2.2      5.3      0.0    123.8       42    212.1    167.3       74     0.000     0.000     0.000     0.000       99        0       42       25       10       18       20     9.861       42     35.5    3.505   -9.900     1.05    0.000    0.000       27        8     2066  Maize_Short_Soroca_7May_NonOptimum_26_NCC.PRM
  Tot(87)        7        5     2067    134.8    524.9   1257.6   439.00      0.0    134.2      0.6      0.1      0.0    122.3       56    230.3    179.3       78     0.000     0.000     0.000     0.000      107        0       42       25       10       13       18    12.183       51     40.0    4.867   -9.900     1.38    0.000    0.000       27        8     2067  Maize_Short_Soroca_7May_NonOptimum_26_NCC.PRM
  Tot(88)        7        5     2068    312.8    486.8   1244.3   439.00      0.0    305.4      7.4     10.1      0.0    130.1       75    320.0    244.5      100     0.000     0.000     0.000     0.000      107        0       42       25       13        2        0    17.969       75     40.1    7.205   -9.900     1.60    0.000    0.000       27        8     2068  Maize_Short_Soroca_7May_NonOptimum_26_NCC.PRM
  Tot(89)        7        5     2069    242.7    565.8   1309.8   438.00      0.0    212.5     30.2     46.5      0.0    139.2       65    252.0    199.5       76     0.000     0.000     0.000     0.000      107        0       42       25       11       13       19    12.288       52     39.5    4.855   -9.900     1.24    0.000    0.000       27        8     2069  Maize_Short_Soroca_7May_NonOptimum_26_NCC.PRM
  Tot(90)        7        5     2070    241.9    523.3   1232.6   437.00      0.0    226.5     15.4     24.2      0.0    144.5       72    274.7    213.1       86     0.000     0.000     0.000     0.000      107        0       42       25        9        5       10    14.841       63     39.9    5.923   -9.900     1.41    0.000    0.000       27        8     2070  Maize_Short_Soroca_7May_NonOptimum_26_NCC.PRM
  Tot(91)        7        5     2071    127.2    531.3   1204.8   437.00      0.0    127.0      0.2      0.0      0.0    104.7       45    238.1    186.0       80     0.000     0.000     0.000     0.000      107        0       42       25       10       11       13    13.129       56     39.7    5.210   -9.900     1.52    0.000    0.000       27        8     2071  Maize_Short_Soroca_7May_NonOptimum_26_NCC.PRM
  Tot(92)        7        5     2072    294.8    432.4   1125.1   436.00      0.0    273.0     21.8     27.5      0.0    122.1       75    265.2    204.7      100     0.000     0.000     0.000     0.000      107        0       42       25       12        0        0    17.499       76     40.0    7.000   -9.900     1.81    0.000    0.000       27        8     2072  Maize_Short_Soroca_7May_NonOptimum_26_NCC.PRM
  Tot(93)        7        5     2073    150.0    548.8   1168.1   436.00      0.0    147.1      2.9      6.2      0.0    125.0       57    235.3    184.3       79     0.000     0.000     0.000     0.000      105        0       42       25       16        8       19    11.463       49     39.3    4.510   -9.900     1.26    0.000    0.000       27        8     2073  Maize_Short_Soroca_7May_NonOptimum_26_NCC.PRM
  Tot(94)        7        5     2074    232.5    436.7   1128.0   435.00      0.0    229.9      2.6      1.3      0.0    106.9       56    237.2    182.6      100     0.000     0.000     0.000     0.000      107        0       42       25       15        2        0    16.226       75     40.0    6.491   -9.900     1.89    0.000    0.000       27        8     2074  Maize_Short_Soroca_7May_NonOptimum_26_NCC.PRM
  Tot(95)        7        5     2075    169.2    546.7   1246.7   435.00      0.0    168.7      0.5      0.0      0.0    106.1       44    269.3    209.5       89     0.000     0.000     0.000     0.000      107        0       42       25        8        8        8    14.785       64     40.2    5.941   -9.900     1.58    0.000    0.000       27        8     2075  Maize_Short_Soroca_7May_NonOptimum_26_NCC.PRM
  Tot(96)        7        5     2076    263.9    534.5   1236.4   434.00      0.0    256.5      7.4      2.4      0.0    138.7       70    294.9    228.5       88     0.000     0.000     0.000     0.000      107        0       42       25       17        2        9    14.818       65     39.6    5.863   -9.900     1.35    0.000    0.000       27        8     2076  Maize_Short_Soroca_7May_NonOptimum_26_NCC.PRM
  Tot(97)        7        5     2077    340.7    424.2   1061.9   433.00      0.0    307.0     33.7     37.0      0.0    111.2       76    271.5    210.1      100     0.000     0.000     0.000     0.000      107        0       42       25       19        2        0    16.919       75     40.0    6.772   -9.900     1.77    0.000    0.000       27        8     2077  Maize_Short_Soroca_7May_NonOptimum_26_NCC.PRM
  Tot(98)        7        5     2078    142.8    590.3   1332.0   433.00      0.0    142.8      0.0      0.0      0.0    128.7       51    241.4    190.4       73     0.000     0.000     0.000     0.000      107        0       42       25        6       14       18    12.517       52     39.4    4.926   -9.900     1.33    0.000    0.000       27        8     2078  Maize_Short_Soroca_7May_NonOptimum_26_NCC.PRM
  Tot(99)        7        5     2079    125.6    580.1   1204.6   432.00      0.0    123.6      2.0      0.0      0.0    122.8       44    214.9    169.4       76     0.000     0.000     0.000     0.000       99        0       42       25       15       17       20     9.858       42     35.5    3.502   -9.900     1.07    0.000    0.000       27        8     2079  Maize_Short_Soroca_7May_NonOptimum_26_NCC.PRM
 Tot(100)        7        5     2080    147.6    541.9   1224.8   432.00      0.0    147.6      0.0      0.0      0.0    136.2       59    228.6    178.8       77     0.000     0.000     0.000     0.000      107        0       42       25       13       11       18    11.953       51     39.4    4.710   -9.900     1.29    0.000    0.000       27        8     2080  Maize_Short_Soroca_7May_NonOptimum_26_NCC.PRM
 Tot(101)        7        5     2081    277.4    503.3   1230.7   431.00      0.0    259.5     17.9     35.5      0.0    147.9       79    290.5    224.1       92     0.000     0.000     0.000     0.000      107        0       42       25        8        2        7    16.054       68     39.9    6.411   -9.900     1.46    0.000    0.000       27        8     2081  Maize_Short_Soroca_7May_NonOptimum_26_NCC.PRM
 Tot(102)        7        5     2082    258.1    457.4   1166.3   431.00      0.0    251.4      6.7     10.7      0.0    144.5       78    267.7    208.0      100     0.000     0.000     0.000     0.000      107        0       42       25       12        4        0    16.864       75     40.1    6.758   -9.900     1.64    0.000    0.000       27        8     2082  Maize_Short_Soroca_7May_NonOptimum_26_NCC.PRM
 Tot(103)        7        5     2083    192.2    512.4   1219.8   430.00      0.0    191.4      0.8      0.0      0.0     98.9       51    298.3    230.7       92     0.000     0.000     0.000     0.000      107        0       42       25       12        4        6    16.144       68     40.0    6.459   -9.900     1.63    0.000    0.000       27        8     2083  Maize_Short_Soroca_7May_NonOptimum_26_NCC.PRM
 Tot(104)        7        5     2084    204.7    567.8   1366.0   429.00      0.0    197.0      7.7      9.8      0.0    128.3       50    248.3    195.8       81     0.000     0.000     0.000     0.000      107        0       42       25        6       18       12    12.511       52     40.4    5.050   -9.900     1.34    0.000    0.000       27        8     2084  Maize_Short_Soroca_7May_NonOptimum_26_NCC.PRM
 Tot(105)        7        5     2085    222.1    494.4   1140.5   429.00      0.0    212.7      9.4     15.7      0.0    133.0       71    267.3    207.7       90     0.000     0.000     0.000     0.000      107        0       42       25       12        6        8    14.824       66     39.8    5.907   -9.900     1.48    0.000    0.000       27        8     2085  Maize_Short_Soroca_7May_NonOptimum_26_NCC.PRM
 Tot(106)        7        5     2086     92.4    615.5   1306.0   428.00      0.0     92.4      0.0      0.0      0.0    104.2       35    204.1    161.5       71     0.000     0.000     0.000     0.000       96        0       42       25       15       17       21     9.266       40     32.4    2.998   -9.900     1.00    0.000    0.000       27        8     2086  Maize_Short_Soroca_7May_NonOptimum_26_NCC.PRM
 Tot(107)        7        5     2087    198.0    506.4   1159.7   428.00      0.0    189.0      9.0     22.9      0.0    124.0       64    258.4    198.9       86     0.000     0.000     0.000     0.000      107        0       42       25       13        2       10    14.444       64     39.8    5.752   -9.900     1.50    0.000    0.000       27        8     2087  Maize_Short_Soroca_7May_NonOptimum_26_NCC.PRM
 Tot(108)        7        5     2088    359.8    462.9   1099.0   427.00      0.0    325.3     34.5     60.5      0.0    154.1       87    278.7    213.8      100     0.000     0.000     0.000     0.000      107        0       42       25       17        1        0    16.663       75     40.1    6.679   -9.900     1.54    0.000    0.000       27        8     2088  Maize_Short_Soroca_7May_NonOptimum_26_NCC.PRM
 Tot(109)        7        5     2089    181.1    496.6   1141.6   427.00      0.0    173.5      7.6     26.2      0.0    129.8       76    241.4    189.7       77     0.000     0.000     0.000     0.000      107        0       42       25       18        5       16    13.025       56     39.4    5.133   -9.900     1.38    0.000    0.000       27        8     2089  Maize_Short_Soroca_7May_NonOptimum_26_NCC.PRM
 Tot(110)        7        5     2090    231.4    460.7   1060.3   426.00      0.0    208.2     23.2     50.7      0.0    111.7       65    252.1    196.2       90     0.000     0.000     0.000     0.000      107        0       42       25       18        8        8    14.752       66     40.1    5.910   -9.900     1.62    0.000    0.000       27        8     2090  Maize_Short_Soroca_7May_NonOptimum_26_NCC.PRM
 Tot(111)        7        5     2091    251.4    497.5   1130.6   425.00      0.0    236.5     14.9      4.5      0.0    109.2       56    274.1    210.7       94     0.000     0.000     0.000     0.000      107        0       42       25       16        3        4    14.591       69     40.1    5.846   -9.900     1.53    0.000    0.000       27        8     2091  Maize_Short_Soroca_7May_NonOptimum_26_NCC.PRM
 Tot(112)        7        5     2092    186.9    471.9   1120.0   425.00      0.0    184.1      2.8     12.9      0.0    113.8       65    265.4    207.2       90     0.000     0.000     0.000     0.000      107        0       42       25       12        7        8    15.241       66     40.1    6.116   -9.900     1.61    0.000    0.000       27        8     2092  Maize_Short_Soroca_7May_NonOptimum_26_NCC.PRM
 Tot(113)        7        5     2093    266.8    483.1   1089.5   424.00      0.0    254.5     12.3     14.4      0.0    111.1       59    290.7    224.5      100     0.000     0.000     0.000     0.000      107        0       42       25       16        3        0    16.802       75     40.0    6.723   -9.900     1.67    0.000    0.000       27        8     2093  Maize_Short_Soroca_7May_NonOptimum_26_NCC.PRM
 Tot(114)        7        5     2094    180.2    640.9   1411.4   424.00      0.0    167.7     12.5     14.1      0.0    146.9       38    165.8    135.3       70     0.000     0.000     0.000     0.000       93        0       42       25        5       32       20     6.600       28     22.8    1.507   -9.900     0.54    0.000    0.000       27        8     2094  Maize_Short_Soroca_7May_NonOptimum_26_NCC.PRM
 Tot(115)        7        5     2095    248.4    540.2   1248.2   423.00      0.0    226.2     22.2      0.0      0.0    131.3       54    288.4    225.3       96     0.000     0.000     0.000     0.000      107        0       42       25       10       22        3    15.054       67     40.7    6.120   -9.900     1.46    0.000    0.000       27        8     2095  Maize_Short_Soroca_7May_NonOptimum_26_NCC.PRM
 Tot(116)        7        5     2096    299.7    413.7   1037.2   423.00      0.0    280.1     19.6     41.4      0.0    134.0       84    238.9    184.8      100     0.000     0.000     0.000     0.000      107        0       42       25       23        0        0    15.545       75     40.0    6.219   -9.900     1.67    0.000    0.000       27        8     2096  Maize_Short_Soroca_7May_NonOptimum_26_NCC.PRM
 Tot(117)        7        5     2097    185.8    503.6   1145.4   422.00      0.0    185.4      0.4      0.3      0.0    113.1       62    284.4    219.5       89     0.000     0.000     0.000     0.000      107        0       42       25       21        4        7    15.241       67     39.9    6.085   -9.900     1.53    0.000    0.000       27        8     2097  Maize_Short_Soroca_7May_NonOptimum_26_NCC.PRM
 Tot(118)        7        5     2098    190.3    506.8   1157.4   422.00      0.0    188.3      2.0      0.0      0.0    131.1       71    275.4    213.1       87     0.000     0.000     0.000     0.000      107        0       42       25       14        2        8    14.985       67     39.8    5.968   -9.900     1.47    0.000    0.000       27        8     2098  Maize_Short_Soroca_7May_NonOptimum_26_NCC.PRM
 Tot(119)        7        5     2099    204.1    500.7   1222.4   421.00      0.0    202.5      1.6      3.6      0.0    107.0       52    288.9    223.1       96     0.000     0.000     0.000     0.000      107        0       42       25       13        4        3    16.627       72     40.1    6.672   -9.900     1.69    0.000    0.000       27        8     2099  Maize_Short_Soroca_7May_NonOptimum_26_NCC.PRM
