AquaCrop 7.0 (August 2022) - Output created on (date) : 23-11-2022   at (time) : 11:56:59

    RunNr     Day1   Month1    Year1     Rain      ETo       GD     CO2      Irri   Infilt   Runoff    Drain   Upflow        E     E/Ex       Tr      TrW   Tr/Trx    SaltIn   SaltOut    SaltUp  SaltProf     Cycle   SaltStr  FertStr  WeedStr  TempStr   ExpStr   StoStr  BioMass  Brelative   HI    Y(dry)  Y(fresh)    WPet      Bin     Bout     DayN   MonthN    YearN
                                           mm       mm  degC.day    ppm        mm       mm       mm       mm       mm       mm        %       mm       mm        %    ton/ha    ton/ha    ton/ha    ton/ha      days       %        %        %        %        %        %    ton/ha        %       %    ton/ha   ton/ha    kg/m3   ton/ha   ton/ha
   Tot(1)        6        6     1981    199.9    451.3   1202.5   340.11      0.0    168.9     31.0      0.0      0.0     98.0       45    218.0    169.5       95     0.000     0.000     0.000     0.000      107        0       42       25       17       16        2    13.099       69     40.8    5.349   -9.900     1.69    0.000    0.000       26        9     1981  Maize_short_Chisinau_6June_NonOptimum_26_MOHC.PRM
   Tot(2)        6        6     1982    192.1    427.5   1217.6   341.22      0.0    191.6      0.5      0.0      0.0    140.8       75    245.0    190.5       99     0.000     0.000     0.000     0.000      107        0       42       25       10        1        1    16.210       74     40.1    6.500   -9.900     1.68    0.000    0.000       26        9     1982  Maize_short_Chisinau_6June_NonOptimum_26_MOHC.PRM
   Tot(3)        6        6     1983    262.8    443.0   1188.8   342.84      0.0    240.7     22.1     39.3      0.0    123.0       64    240.7    186.9      100     0.000     0.000     0.000     0.000      107        0       42       25       12        2        0    15.370       75     40.0    6.150   -9.900     1.69    0.000    0.000       26        9     1983  Maize_short_Chisinau_6June_NonOptimum_26_MOHC.PRM
   Tot(4)        6        6     1984    184.6    423.3   1101.0   344.40      0.0    181.4      3.2      7.2      0.0    136.9       71    220.8    170.5       99     0.000     0.000     0.000     0.000      107        0       42       25       16        6        1    15.077       74     40.3    6.076   -9.900     1.70    0.000    0.000       26        9     1984  Maize_short_Chisinau_6June_NonOptimum_26_MOHC.PRM
   Tot(5)        6        6     1985    281.0    437.5   1120.2   345.87      0.0    247.3     33.7     63.0      0.0    137.1       76    236.2    184.7       97     0.000     0.000     0.000     0.000      107        0       42       25       20        4        2    13.912       73     40.2    5.592   -9.900     1.50    0.000    0.000       26        9     1985  Maize_short_Chisinau_6June_NonOptimum_26_MOHC.PRM
   Tot(6)        6        6     1986    165.0    499.0   1263.3   347.19      0.0    162.3      2.7      5.9      0.0    118.1       52    247.8    192.8       93     0.000     0.000     0.000     0.000      107        0       42       25       13        7        8    13.743       67     40.2    5.527   -9.900     1.51    0.000    0.000       26        9     1986  Maize_short_Chisinau_6June_NonOptimum_26_MOHC.PRM
   Tot(7)        6        6     1987    220.8    477.8   1198.4   348.98      0.0    212.1      8.7     13.2      0.0    114.5       50    234.2    181.1      100     0.000     0.000     0.000     0.000      107        0       42       25       15        5        0    14.236       75     40.2    5.719   -9.900     1.64    0.000    0.000       26        9     1987  Maize_short_Chisinau_6June_NonOptimum_26_MOHC.PRM
   Tot(8)        6        6     1988    230.8    451.7   1243.1   351.45      0.0    200.8     30.0      1.9      0.0    101.3       48    241.5    188.8       99     0.000     0.000     0.000     0.000      107        0       42       25       14        9        0    14.703       73     40.5    5.954   -9.900     1.74    0.000    0.000       26        9     1988  Maize_short_Chisinau_6June_NonOptimum_26_MOHC.PRM
   Tot(9)        6        6     1989    317.2    425.1   1179.8   352.89      0.0    284.4     32.8     13.0      0.0    118.7       59    221.5    172.2      100     0.000     0.000     0.000     0.000      107        0       42       25       14        2        0    14.847       75     40.1    5.948   -9.900     1.75    0.000    0.000       26        9     1989  Maize_short_Chisinau_6June_NonOptimum_26_MOHC.PRM
  Tot(10)        6        6     1990    132.3    476.7   1149.2   354.16      0.0    130.1      2.2      3.3      0.0    118.7       50    204.5    161.3       91     0.000     0.000     0.000     0.000      107        0       42       25       17       14       10    11.760       62     40.5    4.758   -9.900     1.47    0.000    0.000       26        9     1990  Maize_short_Chisinau_6June_NonOptimum_26_MOHC.PRM
  Tot(11)        6        6     1991    275.4    418.6   1253.8   355.48      0.0    261.5     13.9     18.7      0.0    129.6       66    218.7    169.0      100     0.000     0.000     0.000     0.000      107        0       42       25       11        1        0    15.257       75     40.0    6.105   -9.900     1.75    0.000    0.000       26        9     1991  Maize_short_Chisinau_6June_NonOptimum_26_MOHC.PRM
  Tot(12)        6        6     1992    150.7    509.8   1276.3   356.27      0.0    145.6      5.1     13.2      0.0    120.0       50    218.1    173.2       83     0.000     0.000     0.000     0.000      107        0       42       25       13       19       15    11.171       55     40.5    4.524   -9.900     1.34    0.000    0.000       26        9     1992  Maize_short_Chisinau_6June_NonOptimum_26_MOHC.PRM
  Tot(13)        6        6     1993    182.1    473.1   1085.2   356.95      0.0    180.2      1.9      0.0      0.0    113.6       50    223.8    173.6       97     0.000     0.000     0.000     0.000      107        0       42       25       21       12        1    13.129       71     40.6    5.328   -9.900     1.58    0.000    0.000       26        9     1993  Maize_short_Chisinau_6June_NonOptimum_26_MOHC.PRM
  Tot(14)        6        6     1994    231.2    503.3   1362.6   358.63      0.0    182.4     48.8     16.1      0.0     83.3       33    262.5    206.0       97     0.000     0.000     0.000     0.000      107        0       42       25        4       21        2    15.529       68     40.9    6.354   -9.900     1.84    0.000    0.000       26        9     1994  Maize_short_Chisinau_6June_NonOptimum_26_MOHC.PRM
  Tot(15)        6        6     1995    234.6    464.0   1267.5   360.62      0.0    221.2     13.4      0.0      0.0    105.9       47    237.4    186.1      100     0.000     0.000     0.000     0.000      107        0       42       25       12        6        0    14.894       74     40.3    6.002   -9.900     1.75    0.000    0.000       26        9     1995  Maize_short_Chisinau_6June_NonOptimum_26_MOHC.PRM
  Tot(16)        6        6     1996    265.4    465.3   1136.8   362.37      0.0    227.9     37.5      0.0      0.0     93.6       35    193.4    151.9       99     0.000     0.000     0.000     0.000      107        0       42       25       23       17        0    12.330       70     40.7    5.021   -9.900     1.75    0.000    0.000       26        9     1996  Maize_short_Chisinau_6June_NonOptimum_26_MOHC.PRM
  Tot(17)        6        6     1997    315.0    407.4   1143.8   363.47      0.0    294.3     20.7      7.2      0.0    131.8       67    192.3    149.5      100     0.000     0.000     0.000     0.000      107        0       42       25       17        1        0    14.118       75     40.0    5.647   -9.900     1.74    0.000    0.000       26        9     1997  Maize_short_Chisinau_6June_NonOptimum_26_MOHC.PRM
  Tot(18)        6        6     1998    223.6    463.9   1226.6   366.50      0.0    217.1      6.5      0.0      0.0    129.6       63    237.8    184.4       97     0.000     0.000     0.000     0.000      107        0       42       25       16        9        2    13.879       71     40.6    5.628   -9.900     1.53    0.000    0.000       26        9     1998  Maize_short_Chisinau_6June_NonOptimum_26_MOHC.PRM
  Tot(19)        6        6     1999    153.2    491.5   1394.7   368.14      0.0    151.2      2.0      1.9      0.0    114.9       46    237.4    186.0       95     0.000     0.000     0.000     0.000      107        0       42       25        7       15        5    14.664       68     40.5    5.939   -9.900     1.69    0.000    0.000       26        9     1999  Maize_short_Chisinau_6June_NonOptimum_26_MOHC.PRM
  Tot(20)        6        6     2000    210.5    500.1   1200.6   369.41      0.0    203.8      6.7      0.0      0.0     93.1       37    248.7    194.4       99     0.000     0.000     0.000     0.000      107        0       42       25       18        7        0    14.336       73     40.3    5.781   -9.900     1.69    0.000    0.000       26        9     2000  Maize_short_Chisinau_6June_NonOptimum_26_MOHC.PRM
  Tot(21)        6        6     2001    206.9    490.4   1341.7   371.07      0.0    193.1     13.8      1.1      0.0    112.9       49    231.8    182.2       89     0.000     0.000     0.000     0.000      107        0       42       25        9       17        7    13.189       61     40.7    5.364   -9.900     1.56    0.000    0.000       26        9     2001  Maize_short_Chisinau_6June_NonOptimum_26_MOHC.PRM
  Tot(22)        6        6     2002    290.9    484.3   1361.3   373.16      0.0    261.3     29.6     17.0      0.0     92.9       37    246.0    191.1      100     0.000     0.000     0.000     0.000      107        0       42       25        8        4        0    15.735       73     40.0    6.294   -9.900     1.86    0.000    0.000       26        9     2002  Maize_short_Chisinau_6June_NonOptimum_26_MOHC.PRM
  Tot(23)        6        6     2003    217.4    513.0   1265.0   375.80      0.0    213.7      3.7      0.0      0.0    117.9       48    262.4    204.0      100     0.000     0.000     0.000     0.000      107        0       42       25       13        3        0    15.257       74     40.1    6.120   -9.900     1.61    0.000    0.000       26        9     2003  Maize_short_Chisinau_6June_NonOptimum_26_MOHC.PRM
  Tot(24)        6        6     2004    185.9    481.7   1215.0   377.49      0.0    178.0      7.9     18.8      0.0     87.9       36    237.4    184.1      100     0.000     0.000     0.000     0.000      107        0       42       25       12        5        0    15.117       74     40.2    6.077   -9.900     1.87    0.000    0.000       26        9     2004  Maize_short_Chisinau_6June_NonOptimum_26_MOHC.PRM
  Tot(25)        6        6     2005    243.9    464.2   1283.3   379.80      0.0    230.6     13.3     16.9      0.0    122.7       58    259.9    201.0      100     0.000     0.000     0.000     0.000      107        0       42       25        7        7        0    16.529       74     40.2    6.646   -9.900     1.74    0.000    0.000       26        9     2005  Maize_short_Chisinau_6June_NonOptimum_26_MOHC.PRM
  Tot(26)        6        6     2006    224.5    508.3   1271.8   381.90      0.0    219.8      4.7      9.9      0.0    115.6       47    268.5    209.8      100     0.000     0.000     0.000     0.000      107        0       42       25        9        9        0    15.872       73     40.3    6.391   -9.900     1.66    0.000    0.000       26        9     2006  Maize_short_Chisinau_6June_NonOptimum_26_MOHC.PRM
  Tot(27)        6        6     2007    158.6    581.7   1358.0   383.77      0.0    158.1      0.5      0.0      0.0    110.8       32    235.1    188.2       95     0.000     0.000     0.000     0.000      107        0       42       25       11       21        3    12.887       62     40.3    5.188   -9.900     1.50    0.000    0.000       26        9     2007  Maize_short_Chisinau_6June_NonOptimum_26_MOHC.PRM
  Tot(28)        6        6     2008    239.5    514.8   1289.7   385.59      0.0    227.2     12.3      4.8      0.0    119.9       47    250.8    196.4       94     0.000     0.000     0.000     0.000      107        0       42       25       14        6        4    13.658       68     40.2    5.485   -9.900     1.48    0.000    0.000       26        9     2008  Maize_short_Chisinau_6June_NonOptimum_26_MOHC.PRM
  Tot(29)        6        6     2009    175.7    556.7   1379.5   387.37      0.0    173.5      2.2      0.0      0.0    116.2       42    265.1    207.4       91     0.000     0.000     0.000     0.000      107        0       42       25        6       10        8    14.406       64     40.2    5.791   -9.900     1.52    0.000    0.000       26        9     2009  Maize_short_Chisinau_6June_NonOptimum_26_MOHC.PRM
  Tot(30)        6        6     2010    248.7    490.7   1382.9   389.85      0.0    230.1     18.6     30.3      0.0    125.5       55    241.0    187.5       91     0.000     0.000     0.000     0.000      107        0       42       25       11       12        5    14.053       66     40.6    5.709   -9.900     1.56    0.000    0.000       26        9     2010  Maize_short_Chisinau_6June_NonOptimum_26_MOHC.PRM
  Tot(31)        6        6     2011    205.0    522.5   1358.5   391.63      0.0    185.1     19.9     29.8      0.0    141.0       56    230.2    181.5       84     0.000     0.000     0.000     0.000      107        0       42       25        7       11       16    12.567       54     40.0    5.022   -9.900     1.35    0.000    0.000       26        9     2011  Maize_short_Chisinau_6June_NonOptimum_26_MOHC.PRM
  Tot(32)        6        6     2012    146.0    597.2   1443.1   393.82      0.0    144.1      1.9      3.1      0.0     98.3       30    244.6    192.7       88     0.000     0.000     0.000     0.000      107        0       42       25        5       21       11    12.352       55     40.2    4.969   -9.900     1.45    0.000    0.000       26        9     2012  Maize_short_Chisinau_6June_NonOptimum_26_MOHC.PRM
  Tot(33)        6        6     2013    345.4    493.2   1303.2   396.48      0.0    292.7     52.7     37.3      0.0    119.6       50    240.9    188.9       97     0.000     0.000     0.000     0.000      107        0       42       25       12       10        2    14.447       70     40.5    5.850   -9.900     1.62    0.000    0.000       26        9     2013  Maize_short_Chisinau_6June_NonOptimum_26_MOHC.PRM
  Tot(34)        6        6     2014    170.9    550.3   1350.4   398.55      0.0    169.2      1.7      0.0      0.0    105.2       42    270.6    211.2       89     0.000     0.000     0.000     0.000      107        0       42       25        9       10       10    14.068       64     40.2    5.654   -9.900     1.50    0.000    0.000       26        9     2014  Maize_short_Chisinau_6June_NonOptimum_26_MOHC.PRM
  Tot(35)        6        6     2015    125.4    579.0   1437.4   401.00      0.0    124.8      0.6      0.0      0.0    129.4       40    205.3    162.9       81     0.000     0.000     0.000     0.000      102        0       42       25        5       24       18    10.096       44     39.3    3.970   -9.900     1.20    0.000    0.000       26        9     2015  Maize_short_Chisinau_6June_NonOptimum_26_MOHC.PRM
  Tot(36)        6        6     2016    160.2    553.8   1415.3   403.00      0.0    154.0      6.2     12.5      0.0    129.1       43    213.2    168.6       82     0.000     0.000     0.000     0.000      107        0       42       25        8       21       15    11.069       50     40.2    4.447   -9.900     1.30    0.000    0.000       26        9     2016  Maize_short_Chisinau_6June_NonOptimum_26_MOHC.PRM
  Tot(37)        6        6     2017    253.3    534.3   1396.1   405.00      0.0    233.1     20.2     24.7      0.0    138.7       57    279.8    217.1       93     0.000     0.000     0.000     0.000      107        0       42       25        6        4        7    15.392       68     39.9    6.149   -9.900     1.47    0.000    0.000       26        9     2017  Maize_short_Chisinau_6June_NonOptimum_26_MOHC.PRM
  Tot(38)        6        6     2018    286.1    507.8   1446.5   408.00      0.0    269.1     17.0     27.6      0.0    155.4       69    278.6    216.5       94     0.000     0.000     0.000     0.000      107        0       42       25        6        2        4    16.161       70     40.1    6.476   -9.900     1.49    0.000    0.000       26        9     2018  Maize_short_Chisinau_6June_NonOptimum_26_MOHC.PRM
  Tot(39)        6        6     2019    156.4    558.4   1419.7   410.00      0.0    153.3      3.1      1.1      0.0    117.3       42    245.5    191.8       86     0.000     0.000     0.000     0.000      107        0       42       25        7        9       15    13.047       58     39.7    5.174   -9.900     1.43    0.000    0.000       26        9     2019  Maize_short_Chisinau_6June_NonOptimum_26_MOHC.PRM
  Tot(40)        6        6     2020    127.9    629.7   1526.7   412.00      0.0    126.0      1.9      0.0      0.0    111.2       26    167.2    136.6       78     0.000     0.000     0.000     0.000      107        0       42       25        8       37       12     7.068       32     40.5    2.866   -9.900     1.03    0.000    0.000       26        9     2020  Maize_short_Chisinau_6June_NonOptimum_26_MOHC.PRM
  Tot(41)        6        6     2021     55.5    659.9   1561.5   414.00      0.0     55.4      0.1      0.0      0.0     70.4       16    198.1    161.2       80     0.000     0.000     0.000     0.000      107        0       42       25        5       34       18     9.056       39     40.3    3.646   -9.900     1.36    0.000    0.000       26        9     2021  Maize_short_Chisinau_6June_NonOptimum_26_MOHC.PRM
  Tot(42)        6        6     2022     56.9    694.4   1704.9   417.00      0.0     56.9      0.0      0.0      0.0     85.5       18    170.3    138.1       76     0.000     0.000     0.000     0.000       89        0       42       25        0       34       19     6.787       28     26.1    1.769   -9.900     0.70    0.000    0.000       26        9     2022  Maize_short_Chisinau_6June_NonOptimum_26_MOHC.PRM
  Tot(43)        6        6     2023     55.2    691.7   1608.4   419.00      0.0     55.2      0.0      0.0      0.0     74.9       15    159.5    129.6       74     0.000     0.000     0.000     0.000       90        0       42       25        2       35       18     6.295       27     27.1    1.706   -9.900     0.75    0.000    0.000       26        9     2023  Maize_short_Chisinau_6June_NonOptimum_26_MOHC.PRM
  Tot(44)        6        6     2024    178.9    615.5   1555.7   421.00      0.0    163.9     15.0     12.2      0.0    115.4       34    204.2    161.5       75     0.000     0.000     0.000     0.000       94        0       42       25        0       22       20     9.156       39     30.9    2.832   -9.900     0.91    0.000    0.000       26        9     2024  Maize_short_Chisinau_6June_NonOptimum_26_MOHC.PRM
  Tot(45)        6        6     2025     81.4    614.7   1497.0   423.00      0.0     79.9      1.5      0.0      0.0     71.7       16    188.7    153.9       92     0.000     0.000     0.000     0.000      107        0       42       25        7       39        4    10.055       45     40.9    4.112   -9.900     1.58    0.000    0.000       26        9     2025  Maize_short_Chisinau_6June_NonOptimum_26_MOHC.PRM
  Tot(46)        6        6     2026    134.9    703.3   1596.5   424.00      0.0    126.1      8.8      4.9      0.0    106.6       24    184.5    148.8       73     0.000     0.000     0.000     0.000       87        0       42       25        1       30       20     6.998       32     24.2    1.695   -9.900     0.63    0.000    0.000       26        9     2026  Maize_short_Chisinau_6June_NonOptimum_26_MOHC.PRM
  Tot(47)        6        6     2027     35.0    707.7   1596.8   426.00      0.0     35.0      0.0      0.0      0.0     69.2       13    156.3    128.5       80     0.000     0.000     0.000     0.000       94        0       42       25        2       39       16     6.138       27     30.4    1.867   -9.900     0.84    0.000    0.000       26        9     2027  Maize_short_Chisinau_6June_NonOptimum_26_MOHC.PRM
  Tot(48)        6        6     2028    106.8    668.1   1561.7   428.00      0.0     98.9      7.9      8.9      0.0     96.9       19    168.3    138.3       87     0.000     0.000     0.000     0.000      107        0       42       25        6       40        7     8.131       36     40.8    3.319   -9.900     1.25    0.000    0.000       26        9     2028  Maize_short_Chisinau_6June_NonOptimum_26_MOHC.PRM
  Tot(49)        6        6     2029     51.5    650.9   1603.9   429.00      0.0     50.8      0.7      0.3      0.0     79.2       18    164.5    134.1       76     0.000     0.000     0.000     0.000       87        0       42       25        1       35       19     6.540       27     24.1    1.574   -9.900     0.69    0.000    0.000       26        9     2029  Maize_short_Chisinau_6June_NonOptimum_26_MOHC.PRM
  Tot(50)        6        6     2030     63.7    755.4   1741.9   431.00      0.0     62.8      0.9      0.0      0.0     93.2       16    154.2    126.9       79     0.000     0.000     0.000     0.000       87        0       42       25        0       40       17     5.410       22     23.2    1.257   -9.900     0.51    0.000    0.000       26        9     2030  Maize_short_Chisinau_6June_NonOptimum_26_MOHC.PRM
  Tot(51)        6        6     2031     76.4    664.6   1634.1   432.00      0.0     76.3      0.1      0.0      0.0     94.2       23    181.0    145.5       75     0.000     0.000     0.000     0.000       92        0       42       25        0       31       19     7.562       31     29.1    2.198   -9.900     0.80    0.000    0.000       26        9     2031  Maize_short_Chisinau_6June_NonOptimum_26_MOHC.PRM
  Tot(52)        6        6     2032     23.3    743.2   1693.4   433.00      0.0     23.2      0.1      0.0      0.0     57.7       10    155.7    128.4       80     0.000     0.000     0.000     0.000       95        0       42       25        1       40       16     5.887       25     31.4    1.851   -9.900     0.87    0.000    0.000       26        9     2032  Maize_short_Chisinau_6June_NonOptimum_26_MOHC.PRM
  Tot(53)        6        6     2033     70.5    712.8   1627.4   435.00      0.0     69.5      1.0      0.0      0.0     94.8       18    160.9    132.0       79     0.000     0.000     0.000     0.000       95        0       42       25        2       39       16     6.072       26     31.4    1.906   -9.900     0.75    0.000    0.000       26        9     2033  Maize_short_Chisinau_6June_NonOptimum_26_MOHC.PRM
  Tot(54)        6        6     2034    190.6    560.3   1463.8   436.00      0.0    165.9     24.7      2.1      0.0    124.1       45    209.1    164.1       74     0.000     0.000     0.000     0.000      107        0       42       25        9       19       13    10.508       47     40.1    4.212   -9.900     1.26    0.000    0.000       26        9     2034  Maize_short_Chisinau_6June_NonOptimum_26_MOHC.PRM
  Tot(55)        6        6     2035     58.3    654.6   1575.0   437.00      0.0     58.3      0.0      0.0      0.0     85.9       19    161.6    131.7       77     0.000     0.000     0.000     0.000       88        0       42       25        1       35       18     6.547       28     25.2    1.648   -9.900     0.70    0.000    0.000       26        9     2035  Maize_short_Chisinau_6June_NonOptimum_26_MOHC.PRM
  Tot(56)        6        6     2036    134.2    672.9   1586.8   438.00      0.0    130.1      4.1      6.7      0.0    138.1       30    166.1    135.0       75     0.000     0.000     0.000     0.000       91        0       42       25        4       35       18     6.575       29     27.2    1.789   -9.900     0.61    0.000    0.000       26        9     2036  Maize_short_Chisinau_6June_NonOptimum_26_MOHC.PRM
  Tot(57)        6        6     2037     34.2    700.7   1659.2   438.00      0.0     34.1      0.1      0.0      0.0     67.7       13    157.3    129.0       79     0.000     0.000     0.000     0.000       90        0       42       25        2       39       17     6.126       25     27.3    1.673   -9.900     0.75    0.000    0.000       26        9     2037  Maize_short_Chisinau_6June_NonOptimum_26_MOHC.PRM
  Tot(58)        6        6     2038     67.0    582.8   1458.0   439.00      0.0     66.4      0.6      0.1      0.0     94.5       27    170.2    136.6       75     0.000     0.000     0.000     0.000       90        0       42       25        3       31       19     7.494       32     27.0    2.026   -9.900     0.78    0.000    0.000       26        9     2038  Maize_short_Chisinau_6June_NonOptimum_26_MOHC.PRM
  Tot(59)        6        6     2039     88.8    712.5   1645.1   440.00      0.0     79.0      9.8      6.8      0.0     91.0       17    159.4    131.3       80     0.000     0.000     0.000     0.000       95        0       42       25        1       40       16     6.179       26     30.4    1.877   -9.900     0.78    0.000    0.000       26        9     2039  Maize_short_Chisinau_6June_NonOptimum_26_MOHC.PRM
  Tot(60)        6        6     2040     19.0    689.5   1597.0   440.00      0.0     19.0      0.0      0.0      0.0     55.0       11    162.5    132.5       79     0.000     0.000     0.000     0.000       94        0       42       25        1       36       17     6.891       28     31.3    2.156   -9.900     1.00    0.000    0.000       26        9     2040  Maize_short_Chisinau_6June_NonOptimum_26_MOHC.PRM
  Tot(61)        6        6     2041     50.4    719.4   1586.8   441.00      0.0     50.4      0.0      0.0      0.0     73.7       14    157.9    129.1       77     0.000     0.000     0.000     0.000       88        0       42       25        1       38       18     6.081       26     25.1    1.529   -9.900     0.70    0.000    0.000       26        9     2041  Maize_short_Chisinau_6June_NonOptimum_26_MOHC.PRM
  Tot(62)        6        6     2042     86.1    604.0   1546.0   441.00      0.0     85.7      0.4      2.1      0.0     89.2       27    208.0    164.5       78     0.000     0.000     0.000     0.000       97        0       42       25        1       20       19     9.824       40     34.1    3.346   -9.900     1.13    0.000    0.000       26        9     2042  Maize_short_Chisinau_6June_NonOptimum_26_MOHC.PRM
  Tot(63)        6        6     2043    110.9    674.8   1578.4   441.00      0.0    104.7      6.2      0.0      0.0     87.5       19    160.3    130.7       75     0.000     0.000     0.000     0.000       87        0       42       25        1       37       19     5.941       26     23.1    1.371   -9.900     0.58    0.000    0.000       26        9     2043  Maize_short_Chisinau_6June_NonOptimum_26_MOHC.PRM
  Tot(64)        6        6     2044    155.1    592.6   1503.6   442.00      0.0    153.4      1.7      0.0      0.0    165.7       49    188.5    150.0       76     0.000     0.000     0.000     0.000      107        0       42       25        7       25       21     8.769       39     40.1    3.519   -9.900     0.99    0.000    0.000       26        9     2044  Maize_short_Chisinau_6June_NonOptimum_26_MOHC.PRM
  Tot(65)        6        6     2045    180.2    607.9   1407.1   442.00      0.0    140.2     40.0      0.0      0.0     93.6       24    169.2    136.6       75     0.000     0.000     0.000     0.000      107        0       42       25       13       34       15     6.948       33     35.4    2.461   -9.900     0.94    0.000    0.000       26        9     2045  Maize_short_Chisinau_6June_NonOptimum_26_MOHC.PRM
  Tot(66)        6        6     2046     48.2    775.8   1765.1   442.00      0.0     47.8      0.4      0.0      0.0     81.9       13    156.5    129.3       82     0.000     0.000     0.000     0.000       93        0       42       25        0       41       16     5.882       25     29.4    1.728   -9.900     0.74    0.000    0.000       26        9     2046  Maize_short_Chisinau_6June_NonOptimum_26_MOHC.PRM
  Tot(67)        6        6     2047     63.8    695.5   1740.2   442.00      0.0     63.3      0.5      0.0      0.0     72.5       15    158.5    129.3       77     0.000     0.000     0.000     0.000       91        0       42       25        1       37       17     6.341       26     27.2    1.725   -9.900     0.77    0.000    0.000       26        9     2047  Maize_short_Chisinau_6June_NonOptimum_26_MOHC.PRM
  Tot(68)        6        6     2048    151.3    593.9   1470.4   442.00      0.0    141.7      9.6     26.6      0.0    106.3       32    213.2    169.4       82     0.000     0.000     0.000     0.000      103        0       42       25        7       23       17    10.471       47     40.3    4.220   -9.900     1.33    0.000    0.000       26        9     2048  Maize_short_Chisinau_6June_NonOptimum_26_MOHC.PRM
  Tot(69)        6        6     2049     87.7    600.5   1571.6   443.00      0.0     87.5      0.2      0.0      0.0     90.6       25    207.2    166.2       82     0.000     0.000     0.000     0.000      107        0       42       25        5       29       17    10.921       47     40.3    4.399   -9.900     1.48    0.000    0.000       26        9     2049  Maize_short_Chisinau_6June_NonOptimum_26_MOHC.PRM
  Tot(70)        6        6     2050    109.4    622.4   1606.9   443.00      0.0    106.5      2.9      8.5      0.0    104.9       27    195.2    158.1       80     0.000     0.000     0.000     0.000      107        0       42       25        5       33       14     9.775       42     40.6    3.969   -9.900     1.32    0.000    0.000       26        9     2050  Maize_short_Chisinau_6June_NonOptimum_26_MOHC.PRM
  Tot(71)        6        6     2051     57.2    674.7   1573.2   443.00      0.0     49.9      7.3     19.3      0.0     63.5       14    162.3    132.8       77     0.000     0.000     0.000     0.000       90        0       42       25        2       37       18     6.641       28     27.1    1.802   -9.900     0.82    0.000    0.000       26        9     2051  Maize_short_Chisinau_6June_NonOptimum_26_MOHC.PRM
  Tot(72)        6        6     2052    106.0    619.5   1634.8   443.00      0.0    106.0      0.0      0.0      0.0    116.4       30    186.9    149.6       79     0.000     0.000     0.000     0.000       95        0       42       25        0       29       18     8.433       35     32.2    2.713   -9.900     0.90    0.000    0.000       26        9     2052  Maize_short_Chisinau_6June_NonOptimum_26_MOHC.PRM
  Tot(73)        6        6     2053    108.3    659.4   1562.4   443.00      0.0    107.5      0.8      0.0      0.0    120.1       26    166.3    135.0       78     0.000     0.000     0.000     0.000       93        0       42       25        1       35       18     7.059       32     29.3    2.066   -9.900     0.76    0.000    0.000       26        9     2053  Maize_short_Chisinau_6June_NonOptimum_26_MOHC.PRM
  Tot(74)        6        6     2054    136.0    598.5   1479.7   443.00      0.0    124.5     11.5      0.0      0.0    104.2       27    182.5    147.1       82     0.000     0.000     0.000     0.000      107        0       42       25        5       34       11     9.039       39     40.6    3.669   -9.900     1.28    0.000    0.000       26        9     2054  Maize_short_Chisinau_6June_NonOptimum_26_MOHC.PRM
  Tot(75)        6        6     2055    100.4    674.0   1649.6   443.00      0.0     97.7      2.7      0.0      0.0     81.4       20    225.0    180.2       80     0.000     0.000     0.000     0.000      107        0       42       25        3       26       15    11.116       46     40.4    4.496   -9.900     1.47    0.000    0.000       26        9     2055  Maize_short_Chisinau_6June_NonOptimum_26_MOHC.PRM
  Tot(76)        6        6     2056    155.9    650.5   1593.6   442.00      0.0    146.2      9.7     11.2      0.0    132.0       33    175.0    140.6       72     0.000     0.000     0.000     0.000       88        0       42       25        2       30       20     7.203       31     24.9    1.793   -9.900     0.62    0.000    0.000       26        9     2056  Maize_short_Chisinau_6June_NonOptimum_26_MOHC.PRM
  Tot(77)        6        6     2057    109.9    672.2   1639.4   442.00      0.0    106.1      3.8      3.7      0.0    125.1       29    172.9    139.6       75     0.000     0.000     0.000     0.000       87        0       42       25        0       33       20     6.911       30     24.0    1.658   -9.900     0.56    0.000    0.000       26        9     2057  Maize_short_Chisinau_6June_NonOptimum_26_MOHC.PRM
  Tot(78)        6        6     2058     73.9    657.9   1594.8   442.00      0.0     73.7      0.2      0.0      0.0     97.7       23    177.4    142.5       75     0.000     0.000     0.000     0.000       90        0       42       25        1       30       19     7.619       33     27.0    2.054   -9.900     0.78    0.000    0.000       26        9     2058  Maize_short_Chisinau_6June_NonOptimum_26_MOHC.PRM
  Tot(79)        6        6     2059     45.1    661.0   1630.3   442.00      0.0     45.0      0.1      0.0      0.0     62.0       14    194.2    156.4       79     0.000     0.000     0.000     0.000       99        0       42       25        1       29       18     8.842       37     35.9    3.176   -9.900     1.26    0.000    0.000       26        9     2059  Maize_short_Chisinau_6June_NonOptimum_26_MOHC.PRM
  Tot(80)        6        6     2060     29.2    632.7   1561.9   442.00      0.0     29.2      0.0      0.0      0.0     57.9       14    166.7    134.6       76     0.000     0.000     0.000     0.000       91        0       42       25        1       33       18     7.260       30     28.1    2.039   -9.900     0.93    0.000    0.000       26        9     2060  Maize_short_Chisinau_6June_NonOptimum_26_MOHC.PRM
  Tot(81)        6        6     2061     62.0    627.9   1570.6   441.00      0.0     60.7      1.3      0.0      0.0     67.0       15    163.7    133.3       79     0.000     0.000     0.000     0.000       93        0       42       25        0       35       17     7.093       32     30.3    2.146   -9.900     0.97    0.000    0.000       26        9     2061  Maize_short_Chisinau_6June_NonOptimum_26_MOHC.PRM
  Tot(82)        6        6     2062    110.7    620.1   1561.5   441.00      0.0    110.5      0.2      0.0      0.0    106.9       27    200.8    162.4       82     0.000     0.000     0.000     0.000      107        0       42       25        7       33       13     9.943       44     40.5    4.031   -9.900     1.31    0.000    0.000       26        9     2062  Maize_short_Chisinau_6June_NonOptimum_26_MOHC.PRM
  Tot(83)        6        6     2063    107.4    612.2   1562.4   441.00      0.0    105.0      2.4      0.0      0.0     79.6       21    191.8    154.9       79     0.000     0.000     0.000     0.000      107        0       42       25        5       35       13     9.084       39     14.2    1.290   -9.900     0.48    0.000    0.000       26        9     2063  Maize_short_Chisinau_6June_NonOptimum_26_MOHC.PRM
  Tot(84)        6        6     2064     43.6    661.8   1596.8   440.00      0.0     43.6      0.0      0.0      0.0     70.6       15    159.6    131.5       79     0.000     0.000     0.000     0.000       93        0       42       25        1       38       17     6.402       28     30.4    1.943   -9.900     0.90    0.000    0.000       26        9     2064  Maize_short_Chisinau_6June_NonOptimum_26_MOHC.PRM
  Tot(85)        6        6     2065     49.0    713.3   1627.3   440.00      0.0     48.7      0.3      0.0      0.0     63.7       12    170.3    140.0       85     0.000     0.000     0.000     0.000      107        0       42       25        4       38       11     7.917       34     40.6    3.218   -9.900     1.38    0.000    0.000       26        9     2065  Maize_short_Chisinau_6June_NonOptimum_26_MOHC.PRM
  Tot(86)        6        6     2066    192.7    596.3   1469.3   440.00      0.0    163.5     29.2      0.0      0.0     94.5       26    215.8    173.0       90     0.000     0.000     0.000     0.000      107        0       42       25        9       33        4    11.856       55     39.6    4.694   -9.900     1.51    0.000    0.000       26        9     2066  Maize_short_Chisinau_6June_NonOptimum_26_MOHC.PRM
  Tot(87)        6        6     2067    160.1    620.7   1536.4   439.00      0.0    150.1     10.0      0.8      0.0     69.3       17    225.9    183.8       89     0.000     0.000     0.000     0.000      107        0       42       25        3       30        8    11.727       49     40.4    4.734   -9.900     1.60    0.000    0.000       26        9     2067  Maize_short_Chisinau_6June_NonOptimum_26_MOHC.PRM
  Tot(88)        6        6     2068    131.0    573.7   1495.6   439.00      0.0    128.1      2.9      1.9      0.0    129.8       41    206.5    164.2       82     0.000     0.000     0.000     0.000      100        0       42       25        2       24       18    10.175       42     37.3    3.793   -9.900     1.13    0.000    0.000       26        9     2068  Maize_short_Chisinau_6June_NonOptimum_26_MOHC.PRM
  Tot(89)        6        6     2069     55.3    644.8   1620.6   438.00      0.0     55.3      0.0      0.0      0.0     83.6       20    180.8    145.5       77     0.000     0.000     0.000     0.000       95        0       42       25        0       30       19     8.450       35     32.0    2.703   -9.900     1.03    0.000    0.000       26        9     2069  Maize_short_Chisinau_6June_NonOptimum_26_MOHC.PRM
  Tot(90)        6        6     2070     46.9    603.4   1524.7   437.00      0.0     46.9      0.0      0.0      0.0     79.0       20    167.1    135.6       80     0.000     0.000     0.000     0.000       96        0       42       25        3       35       17     7.653       33     33.4    2.554   -9.900     1.06    0.000    0.000       26        9     2070  Maize_short_Chisinau_6June_NonOptimum_26_MOHC.PRM
  Tot(91)        6        6     2071    125.9    566.5   1452.0   437.00      0.0    117.6      8.3      0.0      0.0     80.1       25    232.5    183.5       89     0.000     0.000     0.000     0.000      107        0       42       25        8       26        7    12.744       58     40.8    5.200   -9.900     1.66    0.000    0.000       26        9     2071  Maize_short_Chisinau_6June_NonOptimum_26_MOHC.PRM
  Tot(92)        6        6     2072     49.2    639.6   1541.7   436.00      0.0     49.2      0.0      0.0      0.0     78.7       20    180.7    145.9       76     0.000     0.000     0.000     0.000       95        0       42       25        1       27       19     8.644       37     32.0    2.762   -9.900     1.07    0.000    0.000       26        9     2072  Maize_short_Chisinau_6June_NonOptimum_26_MOHC.PRM
  Tot(93)        6        6     2073     54.6    675.8   1631.1   436.00      0.0     53.7      0.9      2.3      0.0     76.2       17    177.0    142.8       77     0.000     0.000     0.000     0.000       92        0       42       25        1       31       19     7.572       31     29.1    2.204   -9.900     0.87    0.000    0.000       26        9     2073  Maize_short_Chisinau_6June_NonOptimum_26_MOHC.PRM
  Tot(94)        6        6     2074     58.4    610.7   1501.4   435.00      0.0     58.2      0.2      0.0      0.0     79.5       22    182.1    145.5       77     0.000     0.000     0.000     0.000       91        0       42       25        3       29       19     7.945       33     28.0    2.226   -9.900     0.86    0.000    0.000       26        9     2074  Maize_short_Chisinau_6June_NonOptimum_26_MOHC.PRM
  Tot(95)        6        6     2075    104.5    572.9   1427.3   435.00      0.0    103.4      1.1      1.9      0.0     99.5       29    177.5    142.4       77     0.000     0.000     0.000     0.000       95        0       42       25        4       31       18     7.814       35     32.3    2.521   -9.900     0.94    0.000    0.000       26        9     2075  Maize_short_Chisinau_6June_NonOptimum_26_MOHC.PRM
  Tot(96)        6        6     2076     44.5    694.0   1645.0   434.00      0.0     44.3      0.2      0.0      0.0     73.8       15    157.1    128.2       77     0.000     0.000     0.000     0.000       88        0       42       25        0       37       18     5.907       26     24.2    1.429   -9.900     0.63    0.000    0.000       26        9     2076  Maize_short_Chisinau_6June_NonOptimum_26_MOHC.PRM
  Tot(97)        6        6     2077     29.8    696.7   1499.1   433.00      0.0     29.8      0.0      0.0      0.0     64.9       13    158.3    129.8       80     0.000     0.000     0.000     0.000       93        0       42       25        2       38       16     6.373       28     30.4    1.935   -9.900     0.87    0.000    0.000       26        9     2077  Maize_short_Chisinau_6June_NonOptimum_26_MOHC.PRM
  Tot(98)        6        6     2078    107.3    614.3   1578.8   433.00      0.0    107.3      0.0      0.0      0.0    115.5       31    176.8    141.7       75     0.000     0.000     0.000     0.000       91        0       42       25        1       29       19     7.926       35     28.0    2.216   -9.900     0.78    0.000    0.000       26        9     2078  Maize_short_Chisinau_6June_NonOptimum_26_MOHC.PRM
  Tot(99)        6        6     2079     57.6    618.0   1555.0   432.00      0.0     57.6      0.0      0.0      0.0     80.8       20    171.2    138.4       78     0.000     0.000     0.000     0.000       95        0       42       25        3       34       17     7.349       32     32.3    2.375   -9.900     0.96    0.000    0.000       26        9     2079  Maize_short_Chisinau_6June_NonOptimum_26_MOHC.PRM
 Tot(100)        6        6     2080     99.1    651.7   1566.2   432.00      0.0     97.5      1.6      0.0      0.0     94.9       21    158.6    129.5       78     0.000     0.000     0.000     0.000       91        0       42       25        1       38       18     6.085       26     27.3    1.659   -9.900     0.72    0.000    0.000       26        9     2080  Maize_short_Chisinau_6June_NonOptimum_26_MOHC.PRM
 Tot(101)        6        6     2081     53.4    698.3   1693.2   431.00      0.0     53.4      0.0      0.0      0.0     77.9       15    172.5    141.4       82     0.000     0.000     0.000     0.000       99        0       42       25        1       39       16     7.266       31     36.5    2.654   -9.900     1.07    0.000    0.000       26        9     2081  Maize_short_Chisinau_6June_NonOptimum_26_MOHC.PRM
 Tot(102)        6        6     2082     27.9    742.7   1728.5   431.00      0.0     27.7      0.2      0.0      0.0     62.6       11    155.1    127.3       77     0.000     0.000     0.000     0.000       89        0       42       25        0       39       18     5.794       24     25.2    1.460   -9.900     0.68    0.000    0.000       26        9     2082  Maize_short_Chisinau_6June_NonOptimum_26_MOHC.PRM
 Tot(103)        6        6     2083    111.3    661.6   1650.1   430.00      0.0    109.6      1.7      1.6      0.0    105.8       24    206.8    167.9       83     0.000     0.000     0.000     0.000      107        0       42       25        1       37       14     9.888       41     40.7    4.026   -9.900     1.29    0.000    0.000       26        9     2083  Maize_short_Chisinau_6June_NonOptimum_26_MOHC.PRM
 Tot(104)        6        6     2084    111.8    673.2   1650.5   429.00      0.0    103.9      7.9     17.7      0.0    111.5       25    163.7    133.4       74     0.000     0.000     0.000     0.000       88        0       42       25        1       35       19     6.305       27     25.1    1.581   -9.900     0.58    0.000    0.000       26        9     2084  Maize_short_Chisinau_6June_NonOptimum_26_MOHC.PRM
 Tot(105)        6        6     2085    108.6    613.2   1638.3   429.00      0.0    103.7      4.9      0.0      0.0    100.0       24    168.4    136.6       79     0.000     0.000     0.000     0.000       94        0       42       25        2       34       18     7.536       31     31.3    2.355   -9.900     0.96    0.000    0.000       26        9     2085  Maize_short_Chisinau_6June_NonOptimum_26_MOHC.PRM
 Tot(106)        6        6     2086     74.8    597.7   1490.2   428.00      0.0     74.8      0.0      0.0      0.0     93.5       24    170.3    138.0       79     0.000     0.000     0.000     0.000      107        0       42       25        5       35       17     7.475       32     40.5    3.030   -9.900     1.15    0.000    0.000       26        9     2086  Maize_short_Chisinau_6June_NonOptimum_26_MOHC.PRM
 Tot(107)        6        6     2087     89.3    669.1   1664.2   428.00      0.0     89.2      0.1      0.0      0.0     90.4       20    190.0    154.4       80     0.000     0.000     0.000     0.000      107        0       42       25        5       36       14     9.216       40     37.7    3.478   -9.900     1.24    0.000    0.000       26        9     2087  Maize_short_Chisinau_6June_NonOptimum_26_MOHC.PRM
 Tot(108)        6        6     2088    259.3    562.6   1452.3   427.00      0.0    213.5     45.8      6.7      0.0     96.4       32    215.1    171.4       82     0.000     0.000     0.000     0.000      107        0       42       25       10       29       10    10.720       50     32.1    3.442   -9.900     1.11    0.000    0.000       26        9     2088  Maize_short_Chisinau_6June_NonOptimum_26_MOHC.PRM
 Tot(109)        6        6     2089    100.1    583.0   1520.9   427.00      0.0    100.1      0.0      0.0      0.0     96.6       28    204.3    163.8       81     0.000     0.000     0.000     0.000      107        0       42       25        5       29       17    10.281       45     40.3    4.148   -9.900     1.38    0.000    0.000       26        9     2089  Maize_short_Chisinau_6June_NonOptimum_26_MOHC.PRM
 Tot(110)        6        6     2090     82.3    683.7   1640.3   426.00      0.0     82.3      0.0      0.0      0.0    106.1       24    182.8    147.3       75     0.000     0.000     0.000     0.000       93        0       42       25        0       29       19     8.034       35     30.3    2.432   -9.900     0.86    0.000    0.000       26        9     2090  Maize_short_Chisinau_6June_NonOptimum_26_MOHC.PRM
 Tot(111)        6        6     2091     90.0    561.8   1496.6   425.00      0.0     90.0      0.0      0.0      0.0     82.0       26    213.1    168.4       82     0.000     0.000     0.000     0.000      107        0       42       25        6       21       13    12.083       53     40.5    4.892   -9.900     1.66    0.000    0.000       26        9     2091  Maize_short_Chisinau_6June_NonOptimum_26_MOHC.PRM
 Tot(112)        6        6     2092    100.6    596.3   1507.7   425.00      0.0    100.0      0.6      0.0      0.0    109.0       32    182.7    145.5       73     0.000     0.000     0.000     0.000       91        0       42       25        2       27       20     8.092       36     27.8    2.247   -9.900     0.80    0.000    0.000       26        9     2092  Maize_short_Chisinau_6June_NonOptimum_26_MOHC.PRM
 Tot(113)        6        6     2093     55.4    652.7   1604.0   424.00      0.0     55.0      0.4      0.0      0.0     85.3       19    160.6    130.7       77     0.000     0.000     0.000     0.000       91        0       42       25        1       36       17     6.457       27     27.2    1.759   -9.900     0.72    0.000    0.000       26        9     2093  Maize_short_Chisinau_6June_NonOptimum_26_MOHC.PRM
 Tot(114)        6        6     2094     99.7    593.2   1468.1   424.00      0.0     95.9      3.8      0.0      0.0     92.1       25    174.7    141.0       76     0.000     0.000     0.000     0.000      107        0       42       25        9       32       13     8.125       37     40.4    3.282   -9.900     1.23    0.000    0.000       26        9     2094  Maize_short_Chisinau_6June_NonOptimum_26_MOHC.PRM
 Tot(115)        6        6     2095    274.1    619.8   1532.2   423.00      0.0    222.4     51.7      2.7      0.0    133.1       34    172.1    139.1       75     0.000     0.000     0.000     0.000       85        0       42       25        1       34       20     6.480       30     22.0    1.423   -9.900     0.50    0.000    0.000       26        9     2095  Maize_short_Chisinau_6June_NonOptimum_26_MOHC.PRM
 Tot(116)        6        6     2096     48.4    683.7   1719.8   423.00      0.0     48.4      0.0      0.0      0.0     74.0       15    176.7    143.3       79     0.000     0.000     0.000     0.000       98        0       42       25        0       32       17     8.197       33     35.2    2.883   -9.900     1.20    0.000    0.000       26        9     2096  Maize_short_Chisinau_6June_NonOptimum_26_MOHC.PRM
 Tot(117)        6        6     2097    142.0    612.7   1562.1   422.00      0.0    108.0     34.0      2.2      0.0     78.4       21    174.0    139.6       74     0.000     0.000     0.000     0.000       89        0       42       25        1       31       20     7.160       31     25.9    1.855   -9.900     0.75    0.000    0.000       26        9     2097  Maize_short_Chisinau_6June_NonOptimum_26_MOHC.PRM
 Tot(118)        6        6     2098     46.9    637.1   1481.2   422.00      0.0     46.9      0.0      0.0      0.0     58.1       16    202.7    161.0       76     0.000     0.000     0.000     0.000       97        0       42       25        2       22       19     9.165       40     33.8    3.098   -9.900     1.20    0.000    0.000       26        9     2098  Maize_short_Chisinau_6June_NonOptimum_26_MOHC.PRM
 Tot(119)        6        6     2099     27.4    783.4   1721.2   421.00      0.0     27.3      0.1      0.0      0.0     64.5       10    151.9    125.5       81     0.000     0.000     0.000     0.000       92        0       42       25        1       42       16     5.484       24     22.1    1.214   -9.900     0.56    0.000    0.000       26        9     2099  Maize_short_Chisinau_6June_NonOptimum_26_MOHC.PRM
