AquaCrop 7.0 (August 2022) - Output created on (date) : 23-11-2022   at (time) : 13:10:30

    RunNr     Day1   Month1    Year1     Rain      ETo       GD     CO2      Irri   Infilt   Runoff    Drain   Upflow        E     E/Ex       Tr      TrW   Tr/Trx    SaltIn   SaltOut    SaltUp  SaltProf     Cycle   SaltStr  FertStr  WeedStr  TempStr   ExpStr   StoStr  BioMass  Brelative   HI    Y(dry)  Y(fresh)    WPet      Bin     Bout     DayN   MonthN    YearN
                                           mm       mm  degC.day    ppm        mm       mm       mm       mm       mm       mm        %       mm       mm        %    ton/ha    ton/ha    ton/ha    ton/ha      days       %        %        %        %        %        %    ton/ha        %       %    ton/ha   ton/ha    kg/m3   ton/ha   ton/ha
   Tot(1)        6        6     1981    179.0    479.2   1259.0   340.11      0.0    174.7      4.3      0.0      0.0    132.9       57    220.5    219.4       90     0.000     0.000     0.000     0.000      107        0        0        0       13       17        7    16.102       81     40.7    6.560   -9.900     1.86    0.000    0.000       26        9     1981  Maize_short_Cahul_6June_Optimum_85_NCC.PRM
   Tot(2)        6        6     1982    226.5    453.3   1300.2   341.22      0.0    224.6      1.9      0.0      0.0    156.5       76    260.5    260.9       99     0.000     0.000     0.000     0.000      107        0        0        0        6        2        1    21.545       96     40.1    8.646   -9.900     2.07    0.000    0.000       26        9     1982  Maize_short_Cahul_6June_Optimum_85_NCC.PRM
   Tot(3)        6        6     1983    282.8    466.4   1248.7   342.84      0.0    248.9     33.9     46.7      0.0    132.2       64    257.0    257.3       99     0.000     0.000     0.000     0.000      107        0        0        0        9        4        1    20.228       95     40.0    8.092   -9.900     2.08    0.000    0.000       26        9     1983  Maize_short_Cahul_6June_Optimum_85_NCC.PRM
   Tot(4)        6        6     1984    143.5    453.8   1166.3   344.40      0.0    140.3      3.2      4.9      0.0    123.3       58    220.8    220.0       91     0.000     0.000     0.000     0.000      107        0        0        0       11        9        9    17.880       83     40.2    7.193   -9.900     2.09    0.000    0.000       26        9     1984  Maize_short_Cahul_6June_Optimum_85_NCC.PRM
   Tot(5)        6        6     1985    324.4    461.9   1179.1   345.87      0.0    287.6     36.8     49.1      0.0    135.8       70    258.6    259.2       99     0.000     0.000     0.000     0.000      107        0        0        0       16        4        0    19.185       96     40.2    7.717   -9.900     1.96    0.000    0.000       26        9     1985  Maize_short_Cahul_6June_Optimum_85_NCC.PRM
   Tot(6)        6        6     1986    149.3    523.6   1330.5   347.19      0.0    143.2      6.1      7.2      0.0    118.6       48    231.7    232.3       83     0.000     0.000     0.000     0.000      107        0        0        0        8       15       14    15.738       73     40.4    6.352   -9.900     1.81    0.000    0.000       26        9     1986  Maize_short_Cahul_6June_Optimum_85_NCC.PRM
   Tot(7)        6        6     1987    210.0    499.3   1282.2   348.98      0.0    199.7     10.3      5.6      0.0    126.8       54    262.1    260.7       98     0.000     0.000     0.000     0.000      107        0        0        0        9        6        2    19.599       94     40.3    7.891   -9.900     2.03    0.000    0.000       26        9     1987  Maize_short_Cahul_6June_Optimum_85_NCC.PRM
   Tot(8)        6        6     1988    164.3    492.5   1317.1   351.45      0.0    154.4      9.9      0.0      0.0    107.7       41    206.4    207.0       87     0.000     0.000     0.000     0.000      107        0        0        0        9       24        8    14.613       69     40.7    5.955   -9.900     1.90    0.000    0.000       26        9     1988  Maize_short_Cahul_6June_Optimum_85_NCC.PRM
   Tot(9)        6        6     1989    263.2    446.7   1239.6   352.89      0.0    252.6     10.6      6.9      0.0    133.6       65    242.4    241.5      100     0.000     0.000     0.000     0.000      107        0        0        0       11        3        0    19.953       97     40.1    8.005   -9.900     2.13    0.000    0.000       26        9     1989  Maize_short_Cahul_6June_Optimum_85_NCC.PRM
  Tot(10)        6        6     1990    126.8    508.1   1226.1   354.16      0.0    126.2      0.6      0.0      0.0    119.2       45    208.6    210.1       87     0.000     0.000     0.000     0.000      107        0        0        0       13       18       13    14.494       73     40.4    5.863   -9.900     1.79    0.000    0.000       26        9     1990  Maize_short_Cahul_6June_Optimum_85_NCC.PRM
  Tot(11)        6        6     1991    222.0    443.1   1313.0   355.48      0.0    209.4     12.6     21.9      0.0    124.4       61    240.4    239.0      100     0.000     0.000     0.000     0.000      107        0        0        0        8        3        0    20.349       97     40.2    8.172   -9.900     2.24    0.000    0.000       26        9     1991  Maize_short_Cahul_6June_Optimum_85_NCC.PRM
  Tot(12)        6        6     1992    139.3    517.8   1313.1   356.27      0.0    135.9      3.4      6.6      0.0    123.4       48    211.3    213.1       82     0.000     0.000     0.000     0.000      107        0        0        0       10       22       15    13.783       66     40.5    5.588   -9.900     1.67    0.000    0.000       26        9     1992  Maize_short_Cahul_6June_Optimum_85_NCC.PRM
  Tot(13)        6        6     1993    141.0    501.0   1168.2   356.95      0.0    140.8      0.2      0.0      0.0    104.1       42    227.4    226.3       93     0.000     0.000     0.000     0.000      107        0        0        0       16       16        5    16.569       84     40.7    6.735   -9.900     2.03    0.000    0.000       26        9     1993  Maize_short_Cahul_6June_Optimum_85_NCC.PRM
  Tot(14)        6        6     1994    201.5    505.3   1432.3   358.63      0.0    160.3     41.2     32.0      0.0     90.1       36    252.3    252.7       90     0.000     0.000     0.000     0.000      107        0        0        0        3       18        8    18.486       80     40.7    7.518   -9.900     2.20    0.000    0.000       26        9     1994  Maize_short_Cahul_6June_Optimum_85_NCC.PRM
  Tot(15)        6        6     1995    191.4    495.2   1340.3   360.62      0.0    188.1      3.3      0.0      0.0    121.7       48    237.3    237.7       95     0.000     0.000     0.000     0.000      107        0        0        0        9       16        3    18.156       87     40.7    7.387   -9.900     2.06    0.000    0.000       26        9     1995  Maize_short_Cahul_6June_Optimum_85_NCC.PRM
  Tot(16)        6        6     1996    216.5    496.5   1218.6   362.37      0.0    188.4     28.1      0.0      0.0     84.8       28    192.8    192.6       97     0.000     0.000     0.000     0.000      107        0        0        0       17       27        1    14.902       79     40.9    6.096   -9.900     2.20    0.000    0.000       26        9     1996  Maize_short_Cahul_6June_Optimum_85_NCC.PRM
  Tot(17)        6        6     1997    374.7    437.8   1219.0   363.47      0.0    331.6     43.1     21.0      0.0    154.2       73    216.0    216.5      100     0.000     0.000     0.000     0.000      107        0        0        0       13        1        0    19.216       97     40.0    7.687   -9.900     2.08    0.000    0.000       26        9     1997  Maize_short_Cahul_6June_Optimum_85_NCC.PRM
  Tot(18)        6        6     1998    210.6    490.9   1290.8   366.50      0.0    202.8      7.8      2.7      0.0    137.5       57    216.7    215.7       88     0.000     0.000     0.000     0.000      107        0        0        0       11       22        7    15.320       74     40.7    6.242   -9.900     1.76    0.000    0.000       26        9     1998  Maize_short_Cahul_6June_Optimum_85_NCC.PRM
  Tot(19)        6        6     1999    276.9    515.7   1442.8   368.14      0.0    264.5     12.4     18.9      0.0    146.3       54    262.2    260.6      100     0.000     0.000     0.000     0.000      107        0        0        0        5       12        0    20.568       92     40.4    8.314   -9.900     2.04    0.000    0.000       26        9     1999  Maize_short_Cahul_6June_Optimum_85_NCC.PRM
  Tot(20)        6        6     2000    158.9    542.0   1294.7   369.41      0.0    148.1     10.8      0.0      0.0     98.1       31    203.4    206.0       85     0.000     0.000     0.000     0.000      107        0        0        0       12       25        8    13.776       66     40.7    5.610   -9.900     1.86    0.000    0.000       26        9     2000  Maize_short_Cahul_6June_Optimum_85_NCC.PRM
  Tot(21)        6        6     2001    221.7    527.9   1398.2   371.07      0.0    201.1     20.6      0.3      0.0    135.1       46    194.9    195.0       82     0.000     0.000     0.000     0.000      107        0        0        0        6       27       12    12.690       57     40.6    5.151   -9.900     1.56    0.000    0.000       26        9     2001  Maize_short_Cahul_6June_Optimum_85_NCC.PRM
  Tot(22)        6        6     2002    281.0    528.2   1422.2   373.16      0.0    245.2     35.8     12.8      0.0    108.3       38    260.4    259.6      100     0.000     0.000     0.000     0.000      107        0        0        0        6        5        0    20.424       92     40.0    8.170   -9.900     2.22    0.000    0.000       26        9     2002  Maize_short_Cahul_6June_Optimum_85_NCC.PRM
  Tot(23)        6        6     2003    140.3    548.0   1349.4   375.80      0.0    134.9      5.4      0.0      0.0    100.9       34    221.2    221.7       86     0.000     0.000     0.000     0.000      107        0        0        0        9       17       10    15.517       73     40.4    6.273   -9.900     1.95    0.000    0.000       26        9     2003  Maize_short_Cahul_6June_Optimum_85_NCC.PRM
  Tot(24)        6        6     2004    228.7    508.4   1288.8   377.49      0.0    221.5      7.2      3.7      0.0    113.5       45    258.8    258.0      100     0.000     0.000     0.000     0.000      107        0        0        0        9        6        0    20.096       94     40.2    8.071   -9.900     2.17    0.000    0.000       26        9     2004  Maize_short_Cahul_6June_Optimum_85_NCC.PRM
  Tot(25)        6        6     2005    352.7    506.6   1346.7   379.80      0.0    327.3     25.4     34.4      0.0    134.4       59    291.2    289.5      100     0.000     0.000     0.000     0.000      107        0        0        0        5        2        0    21.779       96     40.0    8.720   -9.900     2.05    0.000    0.000       26        9     2005  Maize_short_Cahul_6June_Optimum_85_NCC.PRM
  Tot(26)        6        6     2006    156.6    550.8   1344.7   381.90      0.0    154.3      2.3      0.0      0.0    113.1       36    238.3    239.7       93     0.000     0.000     0.000     0.000      107        0        0        0        6       24        5    16.857       75     40.6    6.849   -9.900     1.95    0.000    0.000       26        9     2006  Maize_short_Cahul_6June_Optimum_85_NCC.PRM
  Tot(27)        6        6     2007    159.1    626.4   1410.5   383.77      0.0    157.4      1.7      0.0      0.0    124.0       31    229.3    229.4       92     0.000     0.000     0.000     0.000      107        0        0        0        8       25        6    14.814       69     40.2    5.960   -9.900     1.69    0.000    0.000       26        9     2007  Maize_short_Cahul_6June_Optimum_85_NCC.PRM
  Tot(28)        6        6     2008    197.7    569.5   1367.7   385.59      0.0    188.2      9.5      0.0      0.0    129.2       43    217.9    218.9       80     0.000     0.000     0.000     0.000      107        0        0        0       12       19       12    13.692       67     40.3    5.520   -9.900     1.59    0.000    0.000       26        9     2008  Maize_short_Cahul_6June_Optimum_85_NCC.PRM
  Tot(29)        6        6     2009    176.3    588.9   1438.2   387.37      0.0    169.3      7.0      0.0      0.0    132.6       41    237.0    236.4       86     0.000     0.000     0.000     0.000      107        0        0        0        4       23       12    15.251       66     40.6    6.188   -9.900     1.67    0.000    0.000       26        9     2009  Maize_short_Cahul_6June_Optimum_85_NCC.PRM
  Tot(30)        6        6     2010    247.1    521.6   1434.9   389.85      0.0    228.6     18.5     34.5      0.0    144.4       58    242.2    241.9       87     0.000     0.000     0.000     0.000      107        0        0        0        7       15        9    17.023       76     40.6    6.909   -9.900     1.79    0.000    0.000       26        9     2010  Maize_short_Cahul_6June_Optimum_85_NCC.PRM
  Tot(31)        6        6     2011    144.1    558.1   1426.3   391.63      0.0    132.7     11.4     12.7      0.0    119.0       40    215.7    216.9       81     0.000     0.000     0.000     0.000      104        0        0        0        3       20       18    13.821       58     40.0    5.525   -9.900     1.65    0.000    0.000       26        9     2011  Maize_short_Cahul_6June_Optimum_85_NCC.PRM
  Tot(32)        6        6     2012    172.7    628.8   1504.7   393.82      0.0    166.6      6.1      6.3      0.0    136.7       36    225.7    224.3       82     0.000     0.000     0.000     0.000      107        0        0        0        3       30       14    13.332       57     40.3    5.372   -9.900     1.48    0.000    0.000       26        9     2012  Maize_short_Cahul_6June_Optimum_85_NCC.PRM
  Tot(33)        6        6     2013    278.4    535.9   1388.7   396.48      0.0    252.5     25.9     25.8      0.0    138.7       51    237.0    237.2       89     0.000     0.000     0.000     0.000      107        0        0        0        8       19        6    16.949       78     40.7    6.904   -9.900     1.84    0.000    0.000       26        9     2013  Maize_short_Cahul_6June_Optimum_85_NCC.PRM
  Tot(34)        6        6     2014    153.0    567.9   1422.4   398.55      0.0    152.8      0.2      0.0      0.0    140.1       49    227.5    228.7       79     0.000     0.000     0.000     0.000      107        0        0        0        6       23       20    14.324       63     39.8    5.704   -9.900     1.55    0.000    0.000       26        9     2014  Maize_short_Cahul_6June_Optimum_85_NCC.PRM
  Tot(35)        6        6     2015    140.8    604.0   1480.5   402.00      0.0    138.4      2.4      0.1      0.0    131.6       39    216.5    216.3       78     0.000     0.000     0.000     0.000      107        0        0        0        3       29       19    13.056       55     40.3    5.263   -9.900     1.51    0.000    0.000       26        9     2015  Maize_short_Cahul_6June_Optimum_85_NCC.PRM
  Tot(36)        6        6     2016    168.2    577.0   1458.2   404.00      0.0    155.6     12.6      0.1      0.0    129.7       38    195.0    195.2       81     0.000     0.000     0.000     0.000      107        0        0        0        7       28       16    12.006       54     40.3    4.839   -9.900     1.49    0.000    0.000       26        9     2016  Maize_short_Cahul_6June_Optimum_85_NCC.PRM
  Tot(37)        6        6     2017    233.5    561.6   1453.7   407.00      0.0    202.3     31.2      8.2      0.0    137.4       53    277.3    276.9       88     0.000     0.000     0.000     0.000      107        0        0        0        4        6       13    18.357       79     39.7    7.285   -9.900     1.76    0.000    0.000       26        9     2017  Maize_short_Cahul_6June_Optimum_85_NCC.PRM
  Tot(38)        6        6     2018    165.7    536.5   1498.9   410.00      0.0    161.3      4.4      0.0      0.0    114.1       46    258.3    258.7       87     0.000     0.000     0.000     0.000      107        0        0        0        4        5       13    18.011       77     39.8    7.165   -9.900     1.92    0.000    0.000       26        9     2018  Maize_short_Cahul_6June_Optimum_85_NCC.PRM
  Tot(39)        6        6     2019    147.0    605.5   1482.4   413.00      0.0    144.2      2.8      0.6      0.0    137.9       39    196.3    196.3       78     0.000     0.000     0.000     0.000       98        0        0        0        1       22       19    12.155       53     34.8    4.233   -9.900     1.28    0.000    0.000       26        9     2019  Maize_short_Cahul_6June_Optimum_85_NCC.PRM
  Tot(40)        6        6     2020     64.5    581.0   1337.8   416.00      0.0     64.5      0.0      0.0      0.0     96.0       27    178.5    178.5       78     0.000     0.000     0.000     0.000       96        0        0        0        3       27       18    10.966       51     33.1    3.629   -9.900     1.33    0.000    0.000       26        9     2020  Maize_short_Cahul_6June_Optimum_85_NCC.PRM
  Tot(41)        6        6     2021    120.6    562.7   1307.2   419.00      0.0    116.5      4.1      2.2      0.0    129.0       40    190.9    190.9       81     0.000     0.000     0.000     0.000       97        0        0        0        5       28       18    11.412       51     34.2    3.908   -9.900     1.23    0.000    0.000       26        9     2021  Maize_short_Cahul_6June_Optimum_85_NCC.PRM
  Tot(42)        6        6     2022    120.9    471.9   1129.6   422.00      0.0    120.7      0.2      0.0      0.0    109.4       48    200.3    200.2       88     0.000     0.000     0.000     0.000      107        0        0        0       17       17       10    15.047       75     40.6    6.116   -9.900     1.98    0.000    0.000       26        9     2022  Maize_short_Cahul_6June_Optimum_85_NCC.PRM
  Tot(43)        6        6     2023    140.6    504.3   1112.9   425.00      0.0    125.0     15.6      0.5      0.0     85.4       32    215.2    215.0       99     0.000     0.000     0.000     0.000      107        0        0        0       20       24        1    15.683       83     40.6    6.360   -9.900     2.12    0.000    0.000       26        9     2023  Maize_short_Cahul_6June_Optimum_85_NCC.PRM
  Tot(44)        6        6     2024     71.7    599.2   1382.8   428.00      0.0     71.4      0.3      0.0      0.0     96.3       24    164.1    164.3       80     0.000     0.000     0.000     0.000       94        0        0        0        4       34       17     9.213       42     30.3    2.793   -9.900     1.08    0.000    0.000       26        9     2024  Maize_short_Cahul_6June_Optimum_85_NCC.PRM
  Tot(45)        6        6     2025    123.4    539.1   1312.1   431.00      0.0    122.6      0.8      0.0      0.0    139.9       46    190.4    190.4       82     0.000     0.000     0.000     0.000      100        0        0        0        5       28       17    12.173       53     37.4    4.552   -9.900     1.39    0.000    0.000       26        9     2025  Maize_short_Cahul_6June_Optimum_85_NCC.PRM
  Tot(46)        6        6     2026    432.7    430.6   1080.6   435.00      0.0    277.2    155.5    119.6      0.0    125.3       67    223.9    222.2       99     0.000     0.000     0.000     0.000      107        0        0        0       17        2        2    20.366       97     40.1    8.168   -9.900     2.34    0.000    0.000       26        9     2026  Maize_short_Cahul_6June_Optimum_85_NCC.PRM
  Tot(47)        6        6     2027     40.9    539.2   1257.0   438.00      0.0     40.9      0.0      0.0      0.0     71.5       23    176.3    178.0       79     0.000     0.000     0.000     0.000       98        0        0        0        9       27       18    11.671       51     35.2    4.103   -9.900     1.69    0.000    0.000       26        9     2027  Maize_short_Cahul_6June_Optimum_85_NCC.PRM
  Tot(48)        6        6     2028     70.4    595.6   1360.7   442.00      0.0     64.5      5.9      6.5      0.0     91.5       24    165.1    165.1       76     0.000     0.000     0.000     0.000       91        0        0        0        3       31       18     9.373       41     28.2    2.639   -9.900     1.04    0.000    0.000       26        9     2028  Maize_short_Cahul_6June_Optimum_85_NCC.PRM
  Tot(49)        6        6     2029     53.9    594.9   1320.9   445.00      0.0     53.9      0.0      0.0      0.0     86.4       23    166.1    166.1       78     0.000     0.000     0.000     0.000       95        0        0        0        7       32       18     9.794       45     32.3    3.160   -9.900     1.32    0.000    0.000       26        9     2029  Maize_short_Cahul_6June_Optimum_85_NCC.PRM
  Tot(50)        6        6     2030     48.5    653.8   1489.4   449.00      0.0     48.5      0.0      0.5      0.0     75.3       16    158.2    158.2       81     0.000     0.000     0.000     0.000       96        0        0        0        2       38       16     8.525       37     33.4    2.847   -9.900     1.26    0.000    0.000       26        9     2030  Maize_short_Cahul_6June_Optimum_85_NCC.PRM
  Tot(51)        6        6     2031     40.8    568.3   1251.0   452.00      0.0     40.5      0.3      0.0      0.0     76.4       22    165.0    165.0       79     0.000     0.000     0.000     0.000       96        0        0        0        8       31       17     9.951       46     33.3    3.316   -9.900     1.38    0.000    0.000       26        9     2031  Maize_short_Cahul_6June_Optimum_85_NCC.PRM
  Tot(52)        6        6     2032     45.6    591.4   1332.5   456.00      0.0     45.5      0.1      0.0      0.0     76.3       20    166.6    166.6       81     0.000     0.000     0.000     0.000      104        0        0        0       11       33       16     9.964       48     40.6    4.047   -9.900     1.67    0.000    0.000       26        9     2032  Maize_short_Cahul_6June_Optimum_85_NCC.PRM
  Tot(53)        6        6     2033     33.7    616.0   1393.6   460.00      0.0     33.7      0.0      0.0      0.0     72.8       18    162.3    162.3       78     0.000     0.000     0.000     0.000       93        0        0        0        4       32       18     9.419       41     30.2    2.845   -9.900     1.25    0.000    0.000       26        9     2033  Maize_short_Cahul_6June_Optimum_85_NCC.PRM
  Tot(54)        6        6     2034     85.0    506.6   1241.1   464.00      0.0     84.7      0.3      0.0      0.0     91.0       34    205.1    204.6       90     0.000     0.000     0.000     0.000      107        0        0        0       13       19       12    15.784       73     40.3    6.367   -9.900     2.15    0.000    0.000       26        9     2034  Maize_short_Cahul_6June_Optimum_85_NCC.PRM
  Tot(55)        6        6     2035     47.7    597.1   1383.5   468.00      0.0     47.1      0.6      0.0      0.0     79.5       22    172.4    172.9       75     0.000     0.000     0.000     0.000       92        0        0        0        7       27       19    10.325       44     29.3    3.027   -9.900     1.21    0.000    0.000       26        9     2035  Maize_short_Cahul_6June_Optimum_85_NCC.PRM
  Tot(56)        6        6     2036    182.9    488.9   1154.7   472.00      0.0    170.8     12.1     16.5      0.0    125.8       56    218.9    218.8       91     0.000     0.000     0.000     0.000      107        0        0        0       20       10        6    16.638       84     40.4    6.724   -9.900     1.95    0.000    0.000       26        9     2036  Maize_short_Cahul_6June_Optimum_85_NCC.PRM
  Tot(57)        6        6     2037     91.3    585.0   1437.3   476.00      0.0     91.2      0.1      0.0      0.0    103.4       29    187.1    187.1       82     0.000     0.000     0.000     0.000      107        0        0        0        6       30       14    12.255       52     40.6    4.971   -9.900     1.71    0.000    0.000       26        9     2037  Maize_short_Cahul_6June_Optimum_85_NCC.PRM
  Tot(58)        6        6     2038     72.1    629.2   1477.0   481.00      0.0     72.0      0.1      0.0      0.0     98.7       24    162.7    162.9       76     0.000     0.000     0.000     0.000       91        0        0        0        1       32       18     9.287       38     28.1    2.611   -9.900     1.02    0.000    0.000       26        9     2038  Maize_short_Cahul_6June_Optimum_85_NCC.PRM
  Tot(59)        6        6     2039     86.4    586.7   1373.5   485.00      0.0     86.4      0.0      0.0      0.0    100.2       27    170.1    170.1       79     0.000     0.000     0.000     0.000       96        0        0        0        5       30       18    10.637       46     33.2    3.534   -9.900     1.32    0.000    0.000       26        9     2039  Maize_short_Cahul_6June_Optimum_85_NCC.PRM
  Tot(60)        6        6     2040     82.2    578.4   1347.8   489.00      0.0     82.2      0.0      0.0      0.0    107.8       31    170.5    170.5       77     0.000     0.000     0.000     0.000       99        0        0        0        5       30       17    10.443       46     36.3    3.795   -9.900     1.37    0.000    0.000       26        9     2040  Maize_short_Cahul_6June_Optimum_85_NCC.PRM
  Tot(61)        6        6     2041    165.3    538.3   1321.8   494.00      0.0    153.7     11.6     20.2      0.0    150.9       56    194.5    194.5       79     0.000     0.000     0.000     0.000       97        0        0        0        5       19       19    12.906       55     34.2    4.411   -9.900     1.29    0.000    0.000       26        9     2041  Maize_short_Cahul_6June_Optimum_85_NCC.PRM
  Tot(62)        6        6     2042     13.8    686.8   1573.9   499.00      0.0     13.8      0.0      0.0      0.0     54.1       11    154.1    154.1       79     0.000     0.000     0.000     0.000       95        0        0        0        2       37       16     8.227       34     32.4    2.664   -9.900     1.29    0.000    0.000       26        9     2042  Maize_short_Cahul_6June_Optimum_85_NCC.PRM
  Tot(63)        6        6     2043    117.5    550.6   1404.5   504.00      0.0    116.1      1.4      0.0      0.0     95.3       31    208.0    208.0       82     0.000     0.000     0.000     0.000      107        0        0        0        7       23       14    15.435       66     40.1    6.187   -9.900     2.04    0.000    0.000       26        9     2043  Maize_short_Cahul_6June_Optimum_85_NCC.PRM
  Tot(64)        6        6     2044    105.8    533.3   1250.4   508.00      0.0    104.6      1.2      1.8      0.0    122.4       40    176.0    176.0       81     0.000     0.000     0.000     0.000      107        0        0        0       15       28       16    11.701       57     40.5    4.742   -9.900     1.59    0.000    0.000       26        9     2044  Maize_short_Cahul_6June_Optimum_85_NCC.PRM
  Tot(65)        6        6     2045     93.0    574.0   1322.6   513.00      0.0     92.8      0.2      0.0      0.0    115.4       34    177.0    177.0       80     0.000     0.000     0.000     0.000      103        0        0        0        9       31       17    11.127       50     40.5    4.508   -9.900     1.55    0.000    0.000       26        9     2045  Maize_short_Cahul_6June_Optimum_85_NCC.PRM
  Tot(66)        6        6     2046     50.5    589.8   1391.0   519.00      0.0     50.0      0.5      0.2      0.0     74.2       20    167.1    167.1       77     0.000     0.000     0.000     0.000       94        0        0        0        5       29       18    10.376       46     31.1    3.229   -9.900     1.36    0.000    0.000       26        9     2046  Maize_short_Cahul_6June_Optimum_85_NCC.PRM
  Tot(67)        6        6     2047     38.2    559.8   1333.6   524.00      0.0     38.2      0.0      0.0      0.0     70.9       22    174.4    174.4       79     0.000     0.000     0.000     0.000       97        0        0        0        6       28       18    11.647       52     34.2    3.978   -9.900     1.64    0.000    0.000       26        9     2047  Maize_short_Cahul_6June_Optimum_85_NCC.PRM
  Tot(68)        6        6     2048    106.9    597.9   1405.2   529.00      0.0     82.9     24.0     33.2      0.0     82.9       23    166.4    166.4       77     0.000     0.000     0.000     0.000       91        0        0        0        6       31       19     9.753       40     28.1    2.744   -9.900     1.11    0.000    0.000       26        9     2048  Maize_short_Cahul_6June_Optimum_85_NCC.PRM
  Tot(69)        6        6     2049     63.1    531.4   1303.6   535.00      0.0     62.1      1.0      0.9      0.0     85.9       29    186.0    186.0       82     0.000     0.000     0.000     0.000      103        0        0        0        7       23       17    13.574       60     40.2    5.453   -9.900     2.01    0.000    0.000       26        9     2049  Maize_short_Cahul_6June_Optimum_85_NCC.PRM
  Tot(70)        6        6     2050    119.1    488.7   1259.5   541.00      0.0    115.2      3.9      0.0      0.0     98.6       39    196.0    196.0       85     0.000     0.000     0.000     0.000      107        0        0        0       10       21       11    15.503       70     40.5    6.278   -9.900     2.13    0.000    0.000       26        9     2050  Maize_short_Cahul_6June_Optimum_85_NCC.PRM
  Tot(71)        6        6     2051    226.9    451.4   1198.7   546.00      0.0    213.3     13.6     10.4      0.0    146.3       77    242.2    240.1      100     0.000     0.000     0.000     0.000      107        0        0        0       12        1        0    21.653       97     40.0    8.671   -9.900     2.23    0.000    0.000       26        9     2051  Maize_short_Cahul_6June_Optimum_85_NCC.PRM
  Tot(72)        6        6     2052     55.5    632.3   1577.7   552.00      0.0     55.5      0.0      0.0      0.0     87.2       21    169.4    171.5       78     0.000     0.000     0.000     0.000       94        0        0        0        1       31       18     9.981       40     31.4    3.135   -9.900     1.25    0.000    0.000       26        9     2052  Maize_short_Cahul_6June_Optimum_85_NCC.PRM
  Tot(73)        6        6     2053    129.2    525.7   1353.0   558.00      0.0    121.6      7.6     14.9      0.0    113.8       40    190.6    190.6       81     0.000     0.000     0.000     0.000      100        0        0        0        4       25       18    13.179       55     37.2    4.909   -9.900     1.66    0.000    0.000       26        9     2053  Maize_short_Cahul_6June_Optimum_85_NCC.PRM
  Tot(74)        6        6     2054     76.9    576.0   1424.3   564.00      0.0     76.2      0.7      0.0      0.0    106.4       32    178.8    178.8       78     0.000     0.000     0.000     0.000       95        0        0        0        2       28       18    11.719       48     32.3    3.787   -9.900     1.34    0.000    0.000       26        9     2054  Maize_short_Cahul_6June_Optimum_85_NCC.PRM
  Tot(75)        6        6     2055    106.2    558.9   1266.4   571.00      0.0    100.3      5.9      4.2      0.0    121.6       38    182.5    182.5       81     0.000     0.000     0.000     0.000       99        0        0        0        6       24       18    12.643       56     36.3    4.584   -9.900     1.51    0.000    0.000       26        9     2055  Maize_short_Cahul_6June_Optimum_85_NCC.PRM
  Tot(76)        6        6     2056     51.9    675.9   1613.0   577.00      0.0     51.9      0.0      0.0      0.0     83.5       17    155.5    155.5       81     0.000     0.000     0.000     0.000       98        0        0        0        3       38       16     8.414       35     34.5    2.900   -9.900     1.22    0.000    0.000       26        9     2056  Maize_short_Cahul_6June_Optimum_85_NCC.PRM
  Tot(77)        6        6     2057    125.4    574.3   1446.3   583.00      0.0    115.3     10.1     13.2      0.0    120.9       39    194.2    194.2       79     0.000     0.000     0.000     0.000       98        0        0        0        3       22       19    12.818       54     35.0    4.490   -9.900     1.43    0.000    0.000       26        9     2057  Maize_short_Cahul_6June_Optimum_85_NCC.PRM
  Tot(78)        6        6     2058     44.0    637.2   1458.4   590.00      0.0     43.0      1.0      0.1      0.0     77.7       19    159.9    159.9       76     0.000     0.000     0.000     0.000       89        0        0        0        3       34       18     8.909       36     26.1    2.324   -9.900     1.00    0.000    0.000       26        9     2058  Maize_short_Cahul_6June_Optimum_85_NCC.PRM
  Tot(79)        6        6     2059     53.8    635.8   1510.9   597.00      0.0     53.8      0.0      0.0      0.0     89.5       22    163.0    163.0       76     0.000     0.000     0.000     0.000       92        0        0        0        1       33       18     9.126       37     29.2    2.662   -9.900     1.11    0.000    0.000       26        9     2059  Maize_short_Cahul_6June_Optimum_85_NCC.PRM
  Tot(80)        6        6     2060    166.4    471.8   1191.0   604.00      0.0    157.3      9.1     12.9      0.0    102.4       49    221.0    220.4       91     0.000     0.000     0.000     0.000      107        0        0        0       12        6        7    18.826       84     40.1    7.556   -9.900     2.34    0.000    0.000       26        9     2060  Maize_short_Cahul_6June_Optimum_85_NCC.PRM
  Tot(81)        6        6     2061     92.7    582.3   1390.9   611.00      0.0     91.6      1.1      3.9      0.0     96.5       29    193.0    193.5       80     0.000     0.000     0.000     0.000      107        0        0        0        6       27       16    12.671       52     40.4    5.118   -9.900     1.77    0.000    0.000       26        9     2061  Maize_short_Cahul_6June_Optimum_85_NCC.PRM
  Tot(82)        6        6     2062     45.6    647.1   1498.8   618.00      0.0     45.6      0.0      0.0      0.0     84.3       20    161.0    161.2       75     0.000     0.000     0.000     0.000       91        0        0        0        3       33       18     9.196       39     28.1    2.584   -9.900     1.10    0.000    0.000       26        9     2062  Maize_short_Cahul_6June_Optimum_85_NCC.PRM
  Tot(83)        6        6     2063     22.8    659.4   1535.4   625.00      0.0     22.2      0.6      2.0      0.0     60.2       14    162.3    162.3       78     0.000     0.000     0.000     0.000       94        0        0        0        1       33       17     9.525       39     31.2    2.971   -9.900     1.34    0.000    0.000       26        9     2063  Maize_short_Cahul_6June_Optimum_85_NCC.PRM
  Tot(84)        6        6     2064     40.3    634.1   1548.6   632.00      0.0     40.3      0.0      0.0      0.0     75.5       19    163.7    163.7       77     0.000     0.000     0.000     0.000       91        0        0        0        4       33       18     9.364       37     28.5    2.666   -9.900     1.12    0.000    0.000       26        9     2064  Maize_short_Cahul_6June_Optimum_85_NCC.PRM
  Tot(85)        6        6     2065    137.6    628.5   1536.2   639.00      0.0    121.6     16.0     22.3      0.0    128.7       35    176.6    176.6       77     0.000     0.000     0.000     0.000       93        0        0        0        1       28       19    11.051       44     30.0    3.318   -9.900     1.09    0.000    0.000       26        9     2065  Maize_short_Cahul_6June_Optimum_85_NCC.PRM
  Tot(86)        6        6     2066     15.4    682.2   1622.3   647.00      0.0     15.4      0.0      0.0      0.0     55.2       12    156.2    156.2       78     0.000     0.000     0.000     0.000       93        0        0        0        0       36       17     8.624       35     30.3    2.617   -9.900     1.25    0.000    0.000       26        9     2066  Maize_short_Cahul_6June_Optimum_85_NCC.PRM
  Tot(87)        6        6     2067     80.0    671.7   1613.0   654.00      0.0     79.2      0.8      0.0      0.0     87.3       19    161.5    161.5       78     0.000     0.000     0.000     0.000       93        0        0        0        1       35       17     9.021       38     30.2    2.727   -9.900     1.16    0.000    0.000       26        9     2067  Maize_short_Cahul_6June_Optimum_85_NCC.PRM
  Tot(88)        6        6     2068     43.0    634.9   1514.9   662.00      0.0     42.9      0.1      0.0      0.0     80.8       20    165.7    165.7       78     0.000     0.000     0.000     0.000       94        0        0        0        3       31       18    10.307       42     31.4    3.238   -9.900     1.33    0.000    0.000       26        9     2068  Maize_short_Cahul_6June_Optimum_85_NCC.PRM
  Tot(89)        6        6     2069     98.2    555.2   1403.3   669.00      0.0     97.7      0.5      0.0      0.0     92.3       31    191.4    191.4       81     0.000     0.000     0.000     0.000      102        0        0        0        3       21       18    13.738       57     39.0    5.358   -9.900     1.92    0.000    0.000       26        9     2069  Maize_short_Cahul_6June_Optimum_85_NCC.PRM
  Tot(90)        6        6     2070     54.9    608.3   1495.1   677.00      0.0     54.9      0.0      0.0      0.0     83.1       22    173.3    173.3       79     0.000     0.000     0.000     0.000       97        0        0        0        2       30       18    10.736       45     34.3    3.683   -9.900     1.45    0.000    0.000       26        9     2070  Maize_short_Cahul_6June_Optimum_85_NCC.PRM
  Tot(91)        6        6     2071    104.9    597.9   1556.4   685.00      0.0     95.1      9.8      5.1      0.0    103.6       29    188.2    188.2       81     0.000     0.000     0.000     0.000       99        0        0        0        1       27       18    12.358       50     36.2    4.476   -9.900     1.56    0.000    0.000       26        9     2071  Maize_short_Cahul_6June_Optimum_85_NCC.PRM
  Tot(92)        6        6     2072    153.3    535.3   1446.4   693.00      0.0    139.3     14.0     27.1      0.0    114.6       43    214.2    213.8       83     0.000     0.000     0.000     0.000      107        0        0        0        5       18       15    16.715       70     40.3    6.729   -9.900     2.05    0.000    0.000       26        9     2072  Maize_short_Cahul_6June_Optimum_85_NCC.PRM
  Tot(93)        6        6     2073     55.3    582.1   1520.6   701.00      0.0     50.0      5.3      4.6      0.0     80.4       22    166.9    167.3       81     0.000     0.000     0.000     0.000      100        0        0        0        3       32       17    11.137       45     37.5    4.173   -9.900     1.69    0.000    0.000       26        9     2073  Maize_short_Cahul_6June_Optimum_85_NCC.PRM
  Tot(94)        6        6     2074     53.4    695.1   1695.8   709.00      0.0     53.3      0.1      0.0      0.0     94.8       19    160.9    160.9       83     0.000     0.000     0.000     0.000       99        0        0        0        0       37       16     9.549       39     36.5    3.481   -9.900     1.36    0.000    0.000       26        9     2074  Maize_short_Cahul_6June_Optimum_85_NCC.PRM
  Tot(95)        6        6     2075     35.9    643.7   1577.3   717.00      0.0     35.9      0.0      0.0      0.0     74.8       17    164.2    164.2       80     0.000     0.000     0.000     0.000       98        0        0        0        1       32       16    10.441       42     35.3    3.690   -9.900     1.56    0.000    0.000       26        9     2075  Maize_short_Cahul_6June_Optimum_85_NCC.PRM
  Tot(96)        6        6     2076    103.4    582.3   1517.0   725.00      0.0     98.7      4.7      8.3      0.0    114.5       35    181.6    181.6       78     0.000     0.000     0.000     0.000       96        0        0        0        2       26       18    11.808       48     33.2    3.917   -9.900     1.33    0.000    0.000       26        9     2076  Maize_short_Cahul_6June_Optimum_85_NCC.PRM
  Tot(97)        6        6     2077     94.1    640.1   1581.9   733.00      0.0     90.7      3.4      0.0      0.0     90.4       21    169.1    168.6       80     0.000     0.000     0.000     0.000      107        0        0        0        3       36       12    10.005       41     40.6    4.060   -9.900     1.56    0.000    0.000       26        9     2077  Maize_short_Cahul_6June_Optimum_85_NCC.PRM
  Tot(98)        6        6     2078     34.9    667.6   1618.5   742.00      0.0     34.8      0.1      0.0      0.0     68.5       15    161.4    161.9       80     0.000     0.000     0.000     0.000       96        0        0        0        2       34       17     9.579       40     33.4    3.197   -9.900     1.43    0.000    0.000       26        9     2078  Maize_short_Cahul_6June_Optimum_85_NCC.PRM
  Tot(99)        6        6     2079     82.3    584.2   1548.2   750.00      0.0     82.2      0.1      0.0      0.0     94.2       26    171.8    171.8       81     0.000     0.000     0.000     0.000       99        0        0        0        3       30       17    11.490       48     36.3    4.175   -9.900     1.64    0.000    0.000       26        9     2079  Maize_short_Cahul_6June_Optimum_85_NCC.PRM
 Tot(100)        6        6     2080     44.9    598.3   1497.2   758.00      0.0     44.6      0.3      0.0      0.0     78.0       22    175.2    175.2       81     0.000     0.000     0.000     0.000       99        0        0        0        1       29       17    11.975       49     36.2    4.339   -9.900     1.72    0.000    0.000       26        9     2080  Maize_short_Cahul_6June_Optimum_85_NCC.PRM
 Tot(101)        6        6     2081     50.5    625.7   1508.8   767.00      0.0     50.3      0.2      0.0      0.0     79.2       19    161.4    161.3       81     0.000     0.000     0.000     0.000      107        0        0        0        6       35       16     9.842       42     40.6    3.993   -9.900     1.66    0.000    0.000       26        9     2081  Maize_short_Cahul_6June_Optimum_85_NCC.PRM
 Tot(102)        6        6     2082    141.2    535.9   1490.1   775.00      0.0    134.2      7.0      5.0      0.0    103.5       41    241.9    241.8       90     0.000     0.000     0.000     0.000      107        0        0        0        3       11       10    19.099       80     39.9    7.616   -9.900     2.20    0.000    0.000       26        9     2082  Maize_short_Cahul_6June_Optimum_85_NCC.PRM
 Tot(103)        6        6     2083     59.7    615.9   1585.5   784.00      0.0     59.7      0.0      0.0      0.0     88.9       23    177.5    177.8       82     0.000     0.000     0.000     0.000       99        0        0        0        1       32       17    11.443       48     36.3    4.159   -9.900     1.58    0.000    0.000       26        9     2083  Maize_short_Cahul_6June_Optimum_85_NCC.PRM
 Tot(104)        6        6     2084     78.3    563.6   1503.4   792.00      0.0     77.7      0.6      0.0      0.0     83.3       31    213.8    213.8       81     0.000     0.000     0.000     0.000      107        0        0        0        2       11       18    15.572       64     39.5    6.155   -9.900     2.07    0.000    0.000       26        9     2084  Maize_short_Cahul_6June_Optimum_85_NCC.PRM
 Tot(105)        6        6     2085     21.6    715.5   1750.4   801.00      0.0     21.6      0.0      0.0      0.0     64.6       12    156.6    156.6       81     0.000     0.000     0.000     0.000      107        0        0        0        1       37       20     9.112       37     35.3    3.212   -9.900     1.45    0.000    0.000       26        9     2085  Maize_short_Cahul_6June_Optimum_85_NCC.PRM
 Tot(106)        6        6     2086     81.3    563.7   1446.8   810.00      0.0     81.3      0.0      0.0      0.0     94.5       32    189.2    189.2       80     0.000     0.000     0.000     0.000      103        0        0        0        6       17       18    13.374       61     40.1    5.367   -9.900     1.91    0.000    0.000       26        9     2086  Maize_short_Cahul_6June_Optimum_85_NCC.PRM
 Tot(107)        6        6     2087    108.6    591.0   1499.6   818.00      0.0    102.4      6.2     14.6      0.0    113.4       35    183.5    183.5       78     0.000     0.000     0.000     0.000       96        0        0        0        4       25       18    11.899       50     33.1    3.939   -9.900     1.34    0.000    0.000       26        9     2087  Maize_short_Cahul_6June_Optimum_85_NCC.PRM
 Tot(108)        6        6     2088     36.0    655.4   1672.6   827.00      0.0     36.0      0.0      0.0      0.0     75.7       17    161.3    161.3       81     0.000     0.000     0.000     0.000       96        0        0        0        0       35       17     9.535       40     33.3    3.179   -9.900     1.35    0.000    0.000       26        9     2088  Maize_short_Cahul_6June_Optimum_85_NCC.PRM
 Tot(109)        6        6     2089     40.1    707.0   1654.4   836.00      0.0     40.1      0.0      0.0      0.0     81.4       17    161.5    161.5       78     0.000     0.000     0.000     0.000       94        0        0        0        0       34       17     9.310       38     31.4    2.927   -9.900     1.22    0.000    0.000       26        9     2089  Maize_short_Cahul_6June_Optimum_85_NCC.PRM
 Tot(110)        6        6     2090     39.9    664.3   1639.6   845.00      0.0     39.9      0.0      0.0      0.0     80.1       18    162.2    162.2       80     0.000     0.000     0.000     0.000       98        0        0        0        2       33       17     9.912       42     35.4    3.508   -9.900     1.47    0.000    0.000       26        9     2090  Maize_short_Cahul_6June_Optimum_85_NCC.PRM
 Tot(111)        6        6     2091     67.5    595.2   1650.1   854.00      0.0     66.9      0.6      0.0      0.0     94.8       29    182.9    182.9       80     0.000     0.000     0.000     0.000       99        0        0        0        1       23       18    12.546       51     36.2    4.536   -9.900     1.64    0.000    0.000       26        9     2091  Maize_short_Cahul_6June_Optimum_85_NCC.PRM
 Tot(112)        6        6     2092     80.9    655.3   1627.6   863.00      0.0     79.7      1.2      3.3      0.0     99.5       23    157.9    157.9       79     0.000     0.000     0.000     0.000       97        0        0        0        1       36       17     8.564       37     32.1    2.752   -9.900     1.10    0.000    0.000       26        9     2092  Maize_short_Cahul_6June_Optimum_85_NCC.PRM
 Tot(113)        6        6     2093    119.3    673.5   1724.7   872.00      0.0    118.1      1.2      0.0      0.0    143.6       36    174.8    174.8       76     0.000     0.000     0.000     0.000       91        0        0        0        0       30       19     9.789       41     28.0    2.740   -9.900     0.87    0.000    0.000       26        9     2093  Maize_short_Cahul_6June_Optimum_85_NCC.PRM
 Tot(114)        6        6     2094     28.2    645.9   1665.2   881.00      0.0     28.2      0.0      0.0      0.0     67.2       16    167.6    167.6       79     0.000     0.000     0.000     0.000       97        0        0        0        0       30       17    10.688       45     34.2    3.657   -9.900     1.56    0.000    0.000       26        9     2094  Maize_short_Cahul_6June_Optimum_85_NCC.PRM
 Tot(115)        6        6     2095    116.9    576.5   1554.9   890.00      0.0    110.1      6.8      8.9      0.0    123.8       39    177.7    177.7       80     0.000     0.000     0.000     0.000       99        0        0        0        3       26       18    11.797       52     36.4    4.288   -9.900     1.43    0.000    0.000       26        9     2095  Maize_short_Cahul_6June_Optimum_85_NCC.PRM
 Tot(116)        6        6     2096    101.1    677.7   1702.6   899.00      0.0    101.1      0.0      0.0      0.0    120.2       28    164.7    164.7       76     0.000     0.000     0.000     0.000       97        0        0        0        1       32       18     9.203       39     31.9    2.932   -9.900     1.05    0.000    0.000       26        9     2096  Maize_short_Cahul_6June_Optimum_85_NCC.PRM
 Tot(117)        6        6     2097     56.2    696.8   1653.2   908.00      0.0     52.4      3.8      7.2      0.0     84.2       18    166.7    166.7       80     0.000     0.000     0.000     0.000       99        0        0        0        2       30       17    10.462       46     36.2    3.785   -9.900     1.52    0.000    0.000       26        9     2097  Maize_short_Cahul_6June_Optimum_85_NCC.PRM
 Tot(118)        6        6     2098    162.6    619.8   1665.3   917.00      0.0    132.3     30.3     32.8      0.0    111.5       33    195.4    195.4       80     0.000     0.000     0.000     0.000       99        0        0        0        2       23       19    12.640       53     36.1    4.560   -9.900     1.51    0.000    0.000       26        9     2098  Maize_short_Cahul_6June_Optimum_85_NCC.PRM
 Tot(119)        6        6     2099     73.3    613.0   1601.4   927.00      0.0     71.4      1.9      0.0      0.0     94.8       28    180.0    180.0       78     0.000     0.000     0.000     0.000       96        0        0        0        0       23       18    11.727       50     33.1    3.887   -9.900     1.43    0.000    0.000       26        9     2099  Maize_short_Cahul_6June_Optimum_85_NCC.PRM
