AquaCrop 7.0 (August 2022) - Output created on (date) : 24-11-2022   at (time) : 10:07:18

    RunNr     Day1   Month1    Year1     Rain      ETo       GD     CO2      Irri   Infilt   Runoff    Drain   Upflow        E     E/Ex       Tr      TrW   Tr/Trx    SaltIn   SaltOut    SaltUp  SaltProf     Cycle   SaltStr  FertStr  WeedStr  TempStr   ExpStr   StoStr  BioMass  Brelative   HI    Y(dry)  Y(fresh)    WPet      Bin     Bout     DayN   MonthN    YearN
                                           mm       mm  degC.day    ppm        mm       mm       mm       mm       mm       mm        %       mm       mm        %    ton/ha    ton/ha    ton/ha    ton/ha      days       %        %        %        %        %        %    ton/ha        %       %    ton/ha   ton/ha    kg/m3   ton/ha   ton/ha
   Tot(1)        7        5     1981    178.8    503.2   1241.2   340.11      0.0    170.0      8.8     19.7      0.0     88.2       42    267.5    265.9       89     0.000     0.000     0.000     0.000      107        0        0        0       11        5        8    18.291       83     39.7    7.262   -9.900     2.04    0.000    0.000       27        8     1981  Maize_short_Cahul_7May_Optimum_26_MPI.PRM
   Tot(2)        7        5     1982    226.7    493.1   1253.0   341.22      0.0    226.0      0.7      0.0      0.0    101.4       45    280.6    279.1      100     0.000     0.000     0.000     0.000      107        0        0        0        8        3        0    21.083       95     40.0    8.440   -9.900     2.21    0.000    0.000       27        8     1982  Maize_short_Cahul_7May_Optimum_26_MPI.PRM
   Tot(3)        7        5     1983    290.7    494.4   1282.6   342.84      0.0    264.2     26.5     26.7      0.0    101.9       47    287.3    287.1      100     0.000     0.000     0.000     0.000      107        0        0        0        6        3        0    21.239       96     40.1    8.514   -9.900     2.19    0.000    0.000       27        8     1983  Maize_short_Cahul_7May_Optimum_26_MPI.PRM
   Tot(4)        7        5     1984    204.3    469.3   1125.8   344.40      0.0    202.8      1.5      3.1      0.0    133.4       69    263.3    265.5       97     0.000     0.000     0.000     0.000      107        0        0        0       13        2        2    19.791       94     40.1    7.931   -9.900     2.00    0.000    0.000       27        8     1984  Maize_short_Cahul_7May_Optimum_26_MPI.PRM
   Tot(5)        7        5     1985    289.7    484.3   1225.0   345.87      0.0    263.2     26.5     42.7      0.0    114.2       55    279.7    277.6      100     0.000     0.000     0.000     0.000      107        0        0        0       10        1        0    20.626       97     40.0    8.250   -9.900     2.09    0.000    0.000       27        8     1985  Maize_short_Cahul_7May_Optimum_26_MPI.PRM
   Tot(6)        7        5     1986    152.5    543.3   1305.4   347.19      0.0    151.8      0.7      0.0      0.0    106.4       45    261.7    264.2       84     0.000     0.000     0.000     0.000      107        0        0        0        5        8       11    17.511       79     39.6    6.933   -9.900     1.88    0.000    0.000       27        8     1986  Maize_short_Cahul_7May_Optimum_26_MPI.PRM
   Tot(7)        7        5     1987    241.4    495.3   1193.7   348.98      0.0    233.0      8.4      0.0      0.0     96.8       50    305.7    303.2       99     0.000     0.000     0.000     0.000      107        0        0        0       13        4        1    20.812       95     40.1    8.345   -9.900     2.07    0.000    0.000       27        8     1987  Maize_short_Cahul_7May_Optimum_26_MPI.PRM
   Tot(8)        7        5     1988    149.9    506.2   1303.3   351.45      0.0    148.7      1.2      3.3      0.0    130.7       64    236.1    239.3       80     0.000     0.000     0.000     0.000      107        0        0        0        8        8       18    15.447       68     39.2    6.055   -9.900     1.65    0.000    0.000       27        8     1988  Maize_short_Cahul_7May_Optimum_26_MPI.PRM
   Tot(9)        7        5     1989    201.9    495.5   1205.1   352.89      0.0    201.5      0.4      0.0      0.0    102.1       51    296.7    295.1       97     0.000     0.000     0.000     0.000      107        0        0        0       13        4        2    20.756       93     40.2    8.345   -9.900     2.09    0.000    0.000       27        8     1989  Maize_short_Cahul_7May_Optimum_26_MPI.PRM
  Tot(10)        7        5     1990    134.9    531.5   1218.0   354.16      0.0    134.6      0.3      0.0      0.0    122.0       53    234.0    235.4       79     0.000     0.000     0.000     0.000      107        0        0        0       13       13       17    15.179       67     39.8    6.046   -9.900     1.70    0.000    0.000       27        8     1990  Maize_short_Cahul_7May_Optimum_26_MPI.PRM
  Tot(11)        7        5     1991    385.6    438.1   1229.6   355.48      0.0    339.7     45.9     69.7      0.0    119.1       77    296.0    293.8      100     0.000     0.000     0.000     0.000      107        0        0        0       15        0        0    22.432       98     40.0    8.978   -9.900     2.16    0.000    0.000       27        8     1991  Maize_short_Cahul_7May_Optimum_26_MPI.PRM
  Tot(12)        7        5     1992    170.3    523.5   1259.8   356.27      0.0    170.0      0.3      0.0      0.0    127.8       64    262.4    264.1       81     0.000     0.000     0.000     0.000      107        0        0        0       14        6       14    17.117       75     39.2    6.705   -9.900     1.72    0.000    0.000       27        8     1992  Maize_short_Cahul_7May_Optimum_26_MPI.PRM
  Tot(13)        7        5     1993    212.3    519.6   1215.6   356.95      0.0    200.6     11.7     23.7      0.0    126.2       61    265.1    263.8       86     0.000     0.000     0.000     0.000      107        0        0        0       10        6       10    17.552       81     39.7    6.964   -9.900     1.78    0.000    0.000       27        8     1993  Maize_short_Cahul_7May_Optimum_26_MPI.PRM
  Tot(14)        7        5     1994    227.8    533.6   1328.9   358.63      0.0    212.2     15.6     35.4      0.0     99.1       42    269.6    270.9       87     0.000     0.000     0.000     0.000      107        0        0        0        8       11        9    17.628       77     39.7    6.999   -9.900     1.90    0.000    0.000       27        8     1994  Maize_short_Cahul_7May_Optimum_26_MPI.PRM
  Tot(15)        7        5     1995    166.2    526.8   1338.7   360.62      0.0    162.9      3.3      3.5      0.0    105.2       47    265.1    265.0       85     0.000     0.000     0.000     0.000      107        0        0        0        7       10       13    17.334       74     39.7    6.879   -9.900     1.86    0.000    0.000       27        8     1995  Maize_short_Cahul_7May_Optimum_26_MPI.PRM
  Tot(16)        7        5     1996    151.7    562.1   1315.4   362.37      0.0    142.1      9.6      0.0      0.0    116.4       36    182.9    183.8       79     0.000     0.000     0.000     0.000      107        0        0        0        7       26       16    10.998       49     40.3    4.431   -9.900     1.48    0.000    0.000       27        8     1996  Maize_short_Cahul_7May_Optimum_26_MPI.PRM
  Tot(17)        7        5     1997    419.7    471.7   1250.0   363.47      0.0    375.1     44.6      0.3      0.0    121.8       59    281.7    281.1      100     0.000     0.000     0.000     0.000      107        0        0        0       10        2        0    22.136       97     40.0    8.862   -9.900     2.20    0.000    0.000       27        8     1997  Maize_short_Cahul_7May_Optimum_26_MPI.PRM
  Tot(18)        7        5     1998    168.8    516.5   1294.8   366.50      0.0    167.9      0.9      2.6      0.0    120.0       61    269.0    269.2       84     0.000     0.000     0.000     0.000      107        0        0        0       12        4       13    17.668       78     39.4    6.964   -9.900     1.79    0.000    0.000       27        8     1998  Maize_short_Cahul_7May_Optimum_26_MPI.PRM
  Tot(19)        7        5     1999    300.8    546.7   1379.6   368.14      0.0    283.6     17.2      0.0      0.0    112.6       50    332.5    330.4       98     0.000     0.000     0.000     0.000      107        0        0        0        7        4        2    21.754       92     40.1    8.727   -9.900     1.96    0.000    0.000       27        8     1999  Maize_short_Cahul_7May_Optimum_26_MPI.PRM
  Tot(20)        7        5     2000     73.9    617.8   1328.9   369.41      0.0     73.9      0.0      0.0      0.0     81.9       24    209.2    211.7       77     0.000     0.000     0.000     0.000      106        0        0        0        7       24       20    12.543       55     39.6    4.962   -9.900     1.71    0.000    0.000       27        8     2000  Maize_short_Cahul_7May_Optimum_26_MPI.PRM
  Tot(21)        7        5     2001    201.1    552.7   1318.6   371.07      0.0    172.7     28.4     17.8      0.0    115.8       52    262.1    261.9       80     0.000     0.000     0.000     0.000      107        0        0        0       10        3       17    16.754       72     39.0    6.535   -9.900     1.73    0.000    0.000       27        8     2001  Maize_short_Cahul_7May_Optimum_26_MPI.PRM
  Tot(22)        7        5     2002    297.9    563.7   1394.2   373.16      0.0    259.4     38.5      0.0      0.0    114.6       42    288.9    286.7       92     0.000     0.000     0.000     0.000      107        0        0        0        5       24        4    18.851       80     40.8    7.698   -9.900     1.91    0.000    0.000       27        8     2002  Maize_short_Cahul_7May_Optimum_26_MPI.PRM
  Tot(23)        7        5     2003    102.9    602.8   1413.4   375.80      0.0    102.9      0.0      0.0      0.0    101.7       29    219.7    222.0       82     0.000     0.000     0.000     0.000      107        0        0        0        3       26       16    14.151       60     40.1    5.672   -9.900     1.76    0.000    0.000       27        8     2003  Maize_short_Cahul_7May_Optimum_26_MPI.PRM
  Tot(24)        7        5     2004    257.1    519.7   1224.3   377.49      0.0    253.2      3.9      0.0      0.0    135.8       63    301.4    299.1       95     0.000     0.000     0.000     0.000      107        0        0        0       12       13        3    20.544       89     40.4    8.295   -9.900     1.90    0.000    0.000       27        8     2004  Maize_short_Cahul_7May_Optimum_26_MPI.PRM
  Tot(25)        7        5     2005    378.7    520.8   1288.0   379.80      0.0    361.0     17.7     10.1      0.0    144.1       69    326.2    325.2      100     0.000     0.000     0.000     0.000      107        0        0        0        8        3        0    22.626       97     40.1    9.071   -9.900     1.93    0.000    0.000       27        8     2005  Maize_short_Cahul_7May_Optimum_26_MPI.PRM
  Tot(26)        7        5     2006    163.6    573.8   1322.8   381.90      0.0    155.9      7.7     15.6      0.0    122.3       46    230.5    233.3       76     0.000     0.000     0.000     0.000      107        0        0        0        7       19       18    14.128       60     39.9    5.635   -9.900     1.60    0.000    0.000       27        8     2006  Maize_short_Cahul_7May_Optimum_26_MPI.PRM
  Tot(27)        7        5     2007    116.6    680.4   1503.0   383.77      0.0    115.3      1.3      0.0      0.0    111.5       28    210.4    210.6       75     0.000     0.000     0.000     0.000      107        0        0        0        1       28       19    10.964       46     40.1    4.393   -9.900     1.36    0.000    0.000       27        8     2007  Maize_short_Cahul_7May_Optimum_26_MPI.PRM
  Tot(28)        7        5     2008    125.7    607.1   1356.8   385.59      0.0    125.7      0.0      0.0      0.0    100.0       36    250.4    250.7       77     0.000     0.000     0.000     0.000      107        0        0        0        4       20       19    14.861       62     39.6    5.888   -9.900     1.68    0.000    0.000       27        8     2008  Maize_short_Cahul_7May_Optimum_26_MPI.PRM
  Tot(29)        7        5     2009    135.6    616.1   1391.5   387.37      0.0    135.0      0.6      0.0      0.0     91.0       31    264.7    264.8       82     0.000     0.000     0.000     0.000      107        0        0        0        5       12       17    15.562       65     39.5    6.144   -9.900     1.73    0.000    0.000       27        8     2009  Maize_short_Cahul_7May_Optimum_26_MPI.PRM
  Tot(30)        7        5     2010    259.9    550.9   1434.7   389.85      0.0    241.6     18.3      0.8      0.0    128.8       57    321.2    319.6       94     0.000     0.000     0.000     0.000      107        0        0        0        7        2        5    21.119       90     39.9    8.432   -9.900     1.87    0.000    0.000       27        8     2010  Maize_short_Cahul_7May_Optimum_26_MPI.PRM
  Tot(31)        7        5     2011    181.1    568.4   1367.2   391.63      0.0    176.8      4.3      2.4      0.0    123.9       52    273.1    274.0       82     0.000     0.000     0.000     0.000      107        0        0        0        4        6       13    17.670       76     39.7    7.011   -9.900     1.77    0.000    0.000       27        8     2011  Maize_short_Cahul_7May_Optimum_26_MPI.PRM
  Tot(32)        7        5     2012    233.1    640.5   1478.9   393.82      0.0    227.4      5.7      5.3      0.0    161.6       56    262.1    261.1       75     0.000     0.000     0.000     0.000      107        0        0        0        5       18       20    14.463       60     39.6    5.722   -9.900     1.35    0.000    0.000       27        8     2012  Maize_short_Cahul_7May_Optimum_26_MPI.PRM
  Tot(33)        7        5     2013    235.4    581.7   1439.0   396.48      0.0    222.9     12.5      0.0      0.0    123.0       50    300.1    300.6       85     0.000     0.000     0.000     0.000      107        0        0        0        3        6       11    19.124       79     39.4    7.534   -9.900     1.78    0.000    0.000       27        8     2013  Maize_short_Cahul_7May_Optimum_26_MPI.PRM
  Tot(34)        7        5     2014    237.3    550.5   1373.2   398.55      0.0    233.6      3.7      5.5      0.0    144.3       67    295.7    293.8       86     0.000     0.000     0.000     0.000      107        0        0        0        5        7       10    19.257       81     39.8    7.665   -9.900     1.74    0.000    0.000       27        8     2014  Maize_short_Cahul_7May_Optimum_26_MPI.PRM
  Tot(35)        7        5     2015    139.4    626.7   1394.8   401.00      0.0    138.0      1.4      0.0      0.0     98.5       32    250.1    252.4       78     0.000     0.000     0.000     0.000      107        0        0        0        5       12       14    14.883       63     39.4    5.859   -9.900     1.68    0.000    0.000       27        8     2015  Maize_short_Cahul_7May_Optimum_26_MPI.PRM
  Tot(36)        7        5     2016    181.5    571.0   1373.9   403.00      0.0    180.8      0.7      0.3      0.0    147.1       66    254.4    254.7       74     0.000     0.000     0.000     0.000      107        0        0        0        8       11       21    15.238       64     39.3    5.986   -9.900     1.49    0.000    0.000       27        8     2016  Maize_short_Cahul_7May_Optimum_26_MPI.PRM
  Tot(37)        7        5     2017    266.4    570.6   1365.8   405.00      0.0    238.1     28.3      0.0      0.0    103.1       46    341.9    340.7       94     0.000     0.000     0.000     0.000      107        0        0        0        7        5        5    21.436       90     40.1    8.598   -9.900     1.93    0.000    0.000       27        8     2017  Maize_short_Cahul_7May_Optimum_26_MPI.PRM
  Tot(38)        7        5     2018    180.2    562.5   1480.2   408.00      0.0    173.9      6.3      1.1      0.0     97.7       37    290.0    290.6       91     0.000     0.000     0.000     0.000      107        0        0        0        3       10        6    20.260       84     40.1    8.117   -9.900     2.09    0.000    0.000       27        8     2018  Maize_short_Cahul_7May_Optimum_26_MPI.PRM
  Tot(39)        7        5     2019    187.7    591.3   1433.5   410.00      0.0    186.5      1.2      1.0      0.0    157.7       62    253.3    254.2       76     0.000     0.000     0.000     0.000      107        0        0        0        3       15       19    15.720       65     39.4    6.200   -9.900     1.51    0.000    0.000       27        8     2019  Maize_short_Cahul_7May_Optimum_26_MPI.PRM
  Tot(40)        7        5     2020    239.3    458.3   1142.1   412.00      0.0    232.7      6.6     14.5      0.0    115.2       70    276.4    276.7       93     0.000     0.000     0.000     0.000      107        0        0        0       14        1        5    20.523       91     40.0    8.200   -9.900     2.09    0.000    0.000       27        8     2020  Maize_short_Cahul_7May_Optimum_26_MPI.PRM
  Tot(41)        7        5     2021    147.1    472.3   1064.6   414.00      0.0    141.9      5.2      0.0      0.0     90.8       47    257.7    256.3       94     0.000     0.000     0.000     0.000      107        0        0        0       20       11        4    19.714       89     40.5    7.986   -9.900     2.29    0.000    0.000       27        8     2021  Maize_short_Cahul_7May_Optimum_26_MPI.PRM
  Tot(42)        7        5     2022    193.3    493.6   1127.0   417.00      0.0    183.7      9.6     15.0      0.0    124.0       73    261.7    263.0       83     0.000     0.000     0.000     0.000      107        0        0        0       19        2       13    17.584       77     39.5    6.940   -9.900     1.80    0.000    0.000       27        8     2022  Maize_short_Cahul_7May_Optimum_26_MPI.PRM
  Tot(43)        7        5     2023     98.2    582.5   1309.9   419.00      0.0     98.2      0.0      0.0      0.0    105.2       34    205.1    205.1       77     0.000     0.000     0.000     0.000      107        0        0        0        6       21       20    12.728       55     40.1    5.105   -9.900     1.65    0.000    0.000       27        8     2023  Maize_short_Cahul_7May_Optimum_26_MPI.PRM
  Tot(44)        7        5     2024    163.0    491.5   1100.9   421.00      0.0    162.3      0.7      1.1      0.0    100.6       50    264.2    263.8       93     0.000     0.000     0.000     0.000      107        0        0        0       14        9        5    19.667       88     40.2    7.910   -9.900     2.17    0.000    0.000       27        8     2024  Maize_short_Cahul_7May_Optimum_26_MPI.PRM
  Tot(45)        7        5     2025    187.9    491.7   1203.3   423.00      0.0    175.9     12.0     24.5      0.0    123.6       55    220.1    220.5       83     0.000     0.000     0.000     0.000      107        0        0        0       12       21       12    15.671       67     40.3    6.323   -9.900     1.84    0.000    0.000       27        8     2025  Maize_short_Cahul_7May_Optimum_26_MPI.PRM
  Tot(46)        7        5     2026    128.5    544.8   1120.8   424.00      0.0    127.3      1.2      0.0      0.0     67.8       30    276.8    275.8       88     0.000     0.000     0.000     0.000      107        0        0        0       16        6        8    18.592       83     39.9    7.421   -9.900     2.15    0.000    0.000       27        8     2026  Maize_short_Cahul_7May_Optimum_26_MPI.PRM
  Tot(47)        7        5     2027    148.8    476.7   1112.3   426.00      0.0    146.8      2.0      0.4      0.0    100.7       52    255.9    255.6       93     0.000     0.000     0.000     0.000      107        0        0        0       14        3        5    19.720       90     40.1    7.912   -9.900     2.22    0.000    0.000       27        8     2027  Maize_short_Cahul_7May_Optimum_26_MPI.PRM
  Tot(48)        7        5     2028    296.8    420.1    971.3   428.00      0.0    266.1     30.7     43.1      0.0    108.3       68    243.7    242.8      100     0.000     0.000     0.000     0.000      107        0        0        0       22        1        0    20.267       97     40.0    8.114   -9.900     2.30    0.000    0.000       27        8     2028  Maize_short_Cahul_7May_Optimum_26_MPI.PRM
  Tot(49)        7        5     2029    167.1    470.7   1106.6   429.00      0.0    162.4      4.7      0.0      0.0     84.6       48    274.4    274.9       96     0.000     0.000     0.000     0.000      107        0        0        0       17        3        3    20.480       92     40.0    8.190   -9.900     2.28    0.000    0.000       27        8     2029  Maize_short_Cahul_7May_Optimum_26_MPI.PRM
  Tot(50)        7        5     2030    115.6    540.1   1228.5   431.00      0.0    115.6      0.0      0.0      0.0     96.6       47    245.1    246.9       78     0.000     0.000     0.000     0.000      107        0        0        0       12        5       19    15.890       68     38.9    6.176   -9.900     1.81    0.000    0.000       27        8     2030  Maize_short_Cahul_7May_Optimum_26_MPI.PRM
  Tot(51)        7        5     2031    210.7    508.2   1190.6   432.00      0.0    196.0     14.7     21.3      0.0    103.7       45    271.2    269.6       95     0.000     0.000     0.000     0.000      107        0        0        0       11       13        3    20.375       88     40.4    8.241   -9.900     2.20    0.000    0.000       27        8     2031  Maize_short_Cahul_7May_Optimum_26_MPI.PRM
  Tot(52)        7        5     2032    255.6    443.5   1024.5   433.00      0.0    225.1     30.5     63.6      0.0    101.3       68    266.7    267.1       94     0.000     0.000     0.000     0.000      107        0        0        0       21        1        5    20.447       92     40.0    8.186   -9.900     2.22    0.000    0.000       27        8     2032  Maize_short_Cahul_7May_Optimum_26_MPI.PRM
  Tot(53)        7        5     2033    296.2    449.1   1036.7   435.00      0.0    240.5     55.7     18.8      0.0     80.7       39    231.3    230.0      100     0.000     0.000     0.000     0.000      107        0        0        0       17        2        0    20.469       96     40.0    8.188   -9.900     2.62    0.000    0.000       27        8     2033  Maize_short_Cahul_7May_Optimum_26_MPI.PRM
  Tot(54)        7        5     2034    176.1    532.6   1214.2   436.00      0.0    170.2      5.9      0.0      0.0     97.1       41    265.0    265.9       89     0.000     0.000     0.000     0.000      107        0        0        0       12        9        8    18.745       79     40.1    7.515   -9.900     2.08    0.000    0.000       27        8     2034  Maize_short_Cahul_7May_Optimum_26_MPI.PRM
  Tot(55)        7        5     2035    149.8    496.8   1123.8   437.00      0.0    145.5      4.3     12.5      0.0    101.8       54    253.5    254.4       84     0.000     0.000     0.000     0.000      107        0        0        0       14        9       12    18.106       79     39.9    7.216   -9.900     2.03    0.000    0.000       27        8     2035  Maize_short_Cahul_7May_Optimum_26_MPI.PRM
  Tot(56)        7        5     2036    179.1    478.0   1187.4   438.00      0.0    176.9      2.2      0.0      0.0    113.0       58    267.4    266.5       95     0.000     0.000     0.000     0.000      107        0        0        0       13        7        4    20.535       91     40.3    8.278   -9.900     2.18    0.000    0.000       27        8     2036  Maize_short_Cahul_7May_Optimum_26_MPI.PRM
  Tot(57)        7        5     2037    187.2    466.4   1106.9   438.00      0.0    178.2      9.0     11.2      0.0     82.4       43    262.9    263.4      100     0.000     0.000     0.000     0.000      107        0        0        0       15        3        0    21.323       96     40.0    8.540   -9.900     2.47    0.000    0.000       27        8     2037  Maize_short_Cahul_7May_Optimum_26_MPI.PRM
  Tot(58)        7        5     2038    184.0    501.6   1182.2   439.00      0.0    176.5      7.5      3.0      0.0     80.5       39    287.0    286.5       97     0.000     0.000     0.000     0.000      107        0        0        0       13       11        2    21.045       92     40.6    8.555   -9.900     2.33    0.000    0.000       27        8     2038  Maize_short_Cahul_7May_Optimum_26_MPI.PRM
  Tot(59)        7        5     2039    134.3    552.5   1180.6   440.00      0.0    126.7      7.6      0.0      0.0     93.2       39    229.1    229.3       77     0.000     0.000     0.000     0.000      107        0        0        0       12       15       15    14.920       64     40.1    5.976   -9.900     1.85    0.000    0.000       27        8     2039  Maize_short_Cahul_7May_Optimum_26_MPI.PRM
  Tot(60)        7        5     2040    106.5    549.4   1176.1   440.00      0.0    102.7      3.8      6.5      0.0    109.7       43    207.1    208.4       78     0.000     0.000     0.000     0.000      104        0        0        0       14       13       19    13.862       60     39.3    5.451   -9.900     1.72    0.000    0.000       27        8     2040  Maize_short_Cahul_7May_Optimum_26_MPI.PRM
  Tot(61)        7        5     2041    134.8    575.2   1188.8   441.00      0.0    132.1      2.7      0.0      0.0    107.6       45    249.3    249.2       78     0.000     0.000     0.000     0.000      107        0        0        0       13        5       19    15.568       67     38.9    6.051   -9.900     1.70    0.000    0.000       27        8     2041  Maize_short_Cahul_7May_Optimum_26_MPI.PRM
  Tot(62)        7        5     2042    208.5    495.0   1197.8   441.00      0.0    188.5     20.0      0.0      0.0     92.9       40    242.5    240.9       92     0.000     0.000     0.000     0.000      107        0        0        0       10       10        5    18.980       83     40.3    7.640   -9.900     2.28    0.000    0.000       27        8     2042  Maize_short_Cahul_7May_Optimum_26_MPI.PRM
  Tot(63)        7        5     2043    194.5    479.5   1066.3   441.00      0.0    173.0     21.5     23.8      0.0    102.6       56    258.4    258.6       92     0.000     0.000     0.000     0.000      107        0        0        0       20        2        6    19.661       89     40.0    7.861   -9.900     2.18    0.000    0.000       27        8     2043  Maize_short_Cahul_7May_Optimum_26_MPI.PRM
  Tot(64)        7        5     2044    260.4    447.0   1110.3   442.00      0.0    247.2     13.2      0.0      0.0     66.6       31    233.6    233.4      100     0.000     0.000     0.000     0.000      107        0        0        0       16        4        0    20.695       95     40.1    8.297   -9.900     2.76    0.000    0.000       27        8     2044  Maize_short_Cahul_7May_Optimum_26_MPI.PRM
  Tot(65)        7        5     2045    246.1    435.5   1064.3   442.00      0.0    235.6     10.5     17.3      0.0    110.9       67    263.8    265.2      100     0.000     0.000     0.000     0.000      107        0        0        0       19        3        0    21.702       97     40.1    8.696   -9.900     2.32    0.000    0.000       27        8     2045  Maize_short_Cahul_7May_Optimum_26_MPI.PRM
  Tot(66)        7        5     2046    152.8    440.1   1078.6   442.00      0.0    150.5      2.3      4.1      0.0     90.0       53    255.5    253.0       95     0.000     0.000     0.000     0.000      107        0        0        0       18       10        4    20.279       89     40.5    8.212   -9.900     2.38    0.000    0.000       27        8     2046  Maize_short_Cahul_7May_Optimum_26_MPI.PRM
  Tot(67)        7        5     2047    179.1    459.3   1121.3   442.00      0.0    174.3      4.8      2.1      0.0     97.6       56    273.2    273.7       97     0.000     0.000     0.000     0.000      107        0        0        0       15        4        2    21.264       94     40.3    8.561   -9.900     2.31    0.000    0.000       27        8     2047  Maize_short_Cahul_7May_Optimum_26_MPI.PRM
  Tot(68)        7        5     2048    241.0    495.6   1188.4   442.00      0.0    231.1      9.9      0.0      0.0    116.3       53    277.2    276.2      100     0.000     0.000     0.000     0.000      107        0        0        0        9        5        0    21.850       95     40.2    8.783   -9.900     2.23    0.000    0.000       27        8     2048  Maize_short_Cahul_7May_Optimum_26_MPI.PRM
  Tot(69)        7        5     2049    158.2    563.6   1191.5   443.00      0.0    153.4      4.8      3.6      0.0    116.6       49    243.8    246.3       80     0.000     0.000     0.000     0.000      107        0        0        0       11       13       13    15.882       70     40.0    6.354   -9.900     1.76    0.000    0.000       27        8     2049  Maize_short_Cahul_7May_Optimum_26_MPI.PRM
  Tot(70)        7        5     2050    183.9    484.1   1141.4   443.00      0.0    180.8      3.1      2.7      0.0     89.1       46    281.8    280.4       98     0.000     0.000     0.000     0.000      107        0        0        0       12        4        2    21.200       94     40.2    8.513   -9.900     2.30    0.000    0.000       27        8     2050  Maize_short_Cahul_7May_Optimum_26_MPI.PRM
  Tot(71)        7        5     2051    142.5    498.2   1130.1   443.00      0.0    139.3      3.2      2.2      0.0    101.4       51    255.5    256.8       87     0.000     0.000     0.000     0.000      107        0        0        0       13        6       10    18.826       82     39.9    7.518   -9.900     2.11    0.000    0.000       27        8     2051  Maize_short_Cahul_7May_Optimum_26_MPI.PRM
  Tot(72)        7        5     2052    139.8    484.8   1140.1   443.00      0.0    139.1      0.7      0.0      0.0     92.8       38    229.5    228.8       94     0.000     0.000     0.000     0.000      107        0        0        0       13       17        3    18.768       83     40.5    7.608   -9.900     2.36    0.000    0.000       27        8     2052  Maize_short_Cahul_7May_Optimum_26_MPI.PRM
  Tot(73)        7        5     2053    168.4    466.7   1097.4   443.00      0.0    160.6      7.8     24.7      0.0    103.5       60    250.0    250.3       88     0.000     0.000     0.000     0.000      107        0        0        0       17        8        9    18.753       83     40.0    7.498   -9.900     2.12    0.000    0.000       27        8     2053  Maize_short_Cahul_7May_Optimum_26_MPI.PRM
  Tot(74)        7        5     2054    197.6    504.8   1105.1   443.00      0.0    191.6      6.0     12.0      0.0     99.7       51    286.6    286.1       95     0.000     0.000     0.000     0.000      107        0        0        0       16        5        4    20.737       91     40.1    8.316   -9.900     2.15    0.000    0.000       27        8     2054  Maize_short_Cahul_7May_Optimum_26_MPI.PRM
  Tot(75)        7        5     2055    167.3    531.8   1200.3   443.00      0.0    161.8      5.5     11.4      0.0    122.2       57    246.9    247.9       80     0.000     0.000     0.000     0.000      107        0        0        0       14       14       15    16.548       71     40.1    6.643   -9.900     1.80    0.000    0.000       27        8     2055  Maize_short_Cahul_7May_Optimum_26_MPI.PRM
  Tot(76)        7        5     2056    147.2    499.3   1144.6   442.00      0.0    145.9      1.3      6.4      0.0    111.4       59    249.5    249.3       83     0.000     0.000     0.000     0.000      107        0        0        0       14        8       13    17.776       77     39.9    7.085   -9.900     1.96    0.000    0.000       27        8     2056  Maize_short_Cahul_7May_Optimum_26_MPI.PRM
  Tot(77)        7        5     2057    167.7    502.3   1126.0   442.00      0.0    156.5     11.2     22.4      0.0     91.7       44    257.7    257.2       90     0.000     0.000     0.000     0.000      107        0        0        0       15        4        7    19.442       87     40.0    7.773   -9.900     2.22    0.000    0.000       27        8     2057  Maize_short_Cahul_7May_Optimum_26_MPI.PRM
  Tot(78)        7        5     2058     99.9    613.2   1314.5   442.00      0.0     98.9      1.0      0.0      0.0     93.9       25    200.9    201.9       82     0.000     0.000     0.000     0.000      107        0        0        0        8       33       13    12.321       52     40.6    4.998   -9.900     1.70    0.000    0.000       27        8     2058  Maize_short_Cahul_7May_Optimum_26_MPI.PRM
  Tot(79)        7        5     2059    341.0    490.8   1169.5   442.00      0.0    267.1     73.9      2.0      0.0     91.7       42    276.7    274.7      100     0.000     0.000     0.000     0.000      107        0        0        0       14        5        0    21.744       95     40.1    8.719   -9.900     2.37    0.000    0.000       27        8     2059  Maize_short_Cahul_7May_Optimum_26_MPI.PRM
  Tot(80)        7        5     2060    158.2    470.5   1134.3   442.00      0.0    153.9      4.3      0.0      0.0     95.5       56    253.8    255.3       86     0.000     0.000     0.000     0.000      107        0        0        0       18        1        9    19.269       85     39.6    7.636   -9.900     2.19    0.000    0.000       27        8     2060  Maize_short_Cahul_7May_Optimum_26_MPI.PRM
  Tot(81)        7        5     2061    231.8    504.1   1171.8   441.00      0.0    197.2     34.6     37.3      0.0     87.9       41    275.9    275.3       93     0.000     0.000     0.000     0.000      107        0        0        0       13       13        5    20.508       87     40.7    8.356   -9.900     2.30    0.000    0.000       27        8     2061  Maize_short_Cahul_7May_Optimum_26_MPI.PRM
  Tot(82)        7        5     2062    175.7    409.5    940.2   441.00      0.0    173.5      2.2      4.4      0.0     95.7       62    232.2    231.2      100     0.000     0.000     0.000     0.000      107        0        0        0       23        1        0    20.172       97     40.0    8.075   -9.900     2.46    0.000    0.000       27        8     2062  Maize_short_Cahul_7May_Optimum_26_MPI.PRM
  Tot(83)        7        5     2063    209.7    504.6   1163.6   441.00      0.0    198.2     11.5     11.3      0.0     87.6       43    281.4    280.6       93     0.000     0.000     0.000     0.000      107        0        0        0       14        9        5    19.932       86     40.3    8.039   -9.900     2.18    0.000    0.000       27        8     2063  Maize_short_Cahul_7May_Optimum_26_MPI.PRM
  Tot(84)        7        5     2064    175.4    493.2   1112.3   440.00      0.0    168.8      6.6      1.8      0.0    105.6       53    265.0    267.9       91     0.000     0.000     0.000     0.000      107        0        0        0       17        6        6    19.689       85     40.1    7.904   -9.900     2.13    0.000    0.000       27        8     2064  Maize_short_Cahul_7May_Optimum_26_MPI.PRM
  Tot(85)        7        5     2065    179.4    425.2   1043.8   440.00      0.0    178.1      1.3      0.0      0.0     77.1       38    217.2    216.0      100     0.000     0.000     0.000     0.000      107        0        0        0       19        4        0    20.276       95     40.0    8.118   -9.900     2.76    0.000    0.000       27        8     2065  Maize_short_Cahul_7May_Optimum_26_MPI.PRM
  Tot(86)        7        5     2066    196.2    457.7   1054.4   440.00      0.0    189.0      7.2     10.7      0.0     92.8       54    275.2    276.4       98     0.000     0.000     0.000     0.000      107        0        0        0       16        5        1    21.438       95     40.2    8.621   -9.900     2.34    0.000    0.000       27        8     2066  Maize_short_Cahul_7May_Optimum_26_MPI.PRM
  Tot(87)        7        5     2067    289.5    397.4    918.8   439.00      0.0    254.5     35.0     16.6      0.0     84.1       49    207.7    206.1      100     0.000     0.000     0.000     0.000      107        0        0        0       26        2        0    19.858       97     40.1    7.955   -9.900     2.73    0.000    0.000       27        8     2067  Maize_short_Cahul_7May_Optimum_26_MPI.PRM
  Tot(88)        7        5     2068    251.7    442.9   1047.5   439.00      0.0    231.6     20.1     36.5      0.0    132.4       85    254.7    256.7       94     0.000     0.000     0.000     0.000      107        0        0        0       20        3        5    19.119       91     40.1    7.666   -9.900     1.98    0.000    0.000       27        8     2068  Maize_short_Cahul_7May_Optimum_26_MPI.PRM
  Tot(89)        7        5     2069    277.1    465.0   1172.6   438.00      0.0    256.5     20.6     19.5      0.0    110.0       57    272.5    269.8      100     0.000     0.000     0.000     0.000      107        0        0        0       11        7        0    21.656       95     40.3    8.717   -9.900     2.28    0.000    0.000       27        8     2069  Maize_short_Cahul_7May_Optimum_26_MPI.PRM
  Tot(90)        7        5     2070    133.7    529.2   1235.4   437.00      0.0    133.3      0.4      0.0      0.0    100.5       41    234.3    236.5       83     0.000     0.000     0.000     0.000      107        0        0        0        9       23       12    15.973       69     40.6    6.485   -9.900     1.94    0.000    0.000       27        8     2070  Maize_short_Cahul_7May_Optimum_26_MPI.PRM
  Tot(91)        7        5     2071    199.0    529.6   1208.8   437.00      0.0    189.4      9.6      8.5      0.0    110.8       50    263.8    262.8       87     0.000     0.000     0.000     0.000      107        0        0        0       10        6        9    18.432       79     39.9    7.346   -9.900     1.96    0.000    0.000       27        8     2071  Maize_short_Cahul_7May_Optimum_26_MPI.PRM
  Tot(92)        7        5     2072    160.5    526.5   1252.0   436.00      0.0    159.8      0.7      1.9      0.0    125.5       62    254.1    255.4       81     0.000     0.000     0.000     0.000      107        0        0        0       10        4       15    17.266       73     39.3    6.783   -9.900     1.79    0.000    0.000       27        8     2072  Maize_short_Cahul_7May_Optimum_26_MPI.PRM
  Tot(93)        7        5     2073    186.8    534.7   1195.1   436.00      0.0    136.0     50.8      0.0      0.0     79.9       36    274.9    274.6       87     0.000     0.000     0.000     0.000      107        0        0        0       14        5       10    19.134       82     39.7    7.603   -9.900     2.14    0.000    0.000       27        8     2073  Maize_short_Cahul_7May_Optimum_26_MPI.PRM
  Tot(94)        7        5     2074    150.5    501.2   1211.4   435.00      0.0    149.3      1.2      0.0      0.0     92.9       41    240.2    240.3       87     0.000     0.000     0.000     0.000      107        0        0        0       11       11        9    18.205       78     40.1    7.302   -9.900     2.19    0.000    0.000       27        8     2074  Maize_short_Cahul_7May_Optimum_26_MPI.PRM
  Tot(95)        7        5     2075    238.4    494.1   1144.0   435.00      0.0    228.1     10.3      3.3      0.0     99.5       50    293.2    291.2      100     0.000     0.000     0.000     0.000      107        0        0        0       16        7        0    21.245       95     40.1    8.512   -9.900     2.17    0.000    0.000       27        8     2075  Maize_short_Cahul_7May_Optimum_26_MPI.PRM
  Tot(96)        7        5     2076    228.5    530.5   1253.7   434.00      0.0    202.8     25.7      1.2      0.0    115.4       49    281.9    282.9       93     0.000     0.000     0.000     0.000      107        0        0        0        8       22        5    19.482       83     40.9    7.962   -9.900     2.00    0.000    0.000       27        8     2076  Maize_short_Cahul_7May_Optimum_26_MPI.PRM
  Tot(97)        7        5     2077    132.5    561.0   1217.6   433.00      0.0    130.6      1.9      0.0      0.0    100.5       40    251.4    252.2       81     0.000     0.000     0.000     0.000      107        0        0        0       12       12       14    16.721       72     39.9    6.666   -9.900     1.89    0.000    0.000       27        8     2077  Maize_short_Cahul_7May_Optimum_26_MPI.PRM
  Tot(98)        7        5     2078    141.3    478.9   1149.9   433.00      0.0    135.6      5.7      7.5      0.0     72.6       37    257.0    255.9       93     0.000     0.000     0.000     0.000      107        0        0        0       13        9        5    19.321       86     40.3    7.792   -9.900     2.36    0.000    0.000       27        8     2078  Maize_short_Cahul_7May_Optimum_26_MPI.PRM
  Tot(99)        7        5     2079    146.1    447.8   1048.4   432.00      0.0    144.2      1.9      2.5      0.0    103.5       60    246.1    246.8       94     0.000     0.000     0.000     0.000      107        0        0        0       17        2        5    19.766       90     40.0    7.904   -9.900     2.26    0.000    0.000       27        8     2079  Maize_short_Cahul_7May_Optimum_26_MPI.PRM
 Tot(100)        7        5     2080    216.2    490.8   1105.4   432.00      0.0    198.9     17.3     40.1      0.0    104.3       57    262.2    260.4       89     0.000     0.000     0.000     0.000      107        0        0        0       18        3        7    19.263       86     39.8    7.664   -9.900     2.09    0.000    0.000       27        8     2080  Maize_short_Cahul_7May_Optimum_26_MPI.PRM
 Tot(101)        7        5     2081    240.6    452.4   1144.1   431.00      0.0    224.3     16.3     43.1      0.0    112.7       68    261.9    264.0       93     0.000     0.000     0.000     0.000      107        0        0        0       16        2        4    19.784       90     40.0    7.909   -9.900     2.11    0.000    0.000       27        8     2081  Maize_short_Cahul_7May_Optimum_26_MPI.PRM
 Tot(102)        7        5     2082    159.0    502.6   1143.9   431.00      0.0    145.2     13.8      2.4      0.0     95.2       46    219.3    218.9       80     0.000     0.000     0.000     0.000      107        0        0        0       14        8       14    15.542       69     39.4    6.116   -9.900     1.94    0.000    0.000       27        8     2082  Maize_short_Cahul_7May_Optimum_26_MPI.PRM
 Tot(103)        7        5     2083    165.6    505.8   1125.3   430.00      0.0    155.8      9.8     17.4      0.0     94.3       48    258.9    257.6       85     0.000     0.000     0.000     0.000      107        0        0        0       14        7       11    18.276       79     39.8    7.265   -9.900     2.06    0.000    0.000       27        8     2083  Maize_short_Cahul_7May_Optimum_26_MPI.PRM
 Tot(104)        7        5     2084    222.1    480.8   1146.4   429.00      0.0    209.6     12.5      0.0      0.0     86.8       44    281.9    282.9       98     0.000     0.000     0.000     0.000      107        0        0        0       15        2        1    21.259       95     40.0    8.504   -9.900     2.31    0.000    0.000       27        8     2084  Maize_short_Cahul_7May_Optimum_26_MPI.PRM
 Tot(105)        7        5     2085    156.6    474.5   1102.3   429.00      0.0    155.5      1.1      0.0      0.0     70.5       33    256.4    255.2      100     0.000     0.000     0.000     0.000      107        0        0        0       15        8        0    20.536       93     40.1    8.239   -9.900     2.52    0.000    0.000       27        8     2085  Maize_short_Cahul_7May_Optimum_26_MPI.PRM
 Tot(106)        7        5     2086    251.9    451.0   1158.2   428.00      0.0    227.4     24.5     57.0      0.0    106.8       66    269.1    271.3       94     0.000     0.000     0.000     0.000      107        0        0        0       14        1        5    20.872       92     39.9    8.336   -9.900     2.22    0.000    0.000       27        8     2086  Maize_short_Cahul_7May_Optimum_26_MPI.PRM
 Tot(107)        7        5     2087    214.0    521.6   1213.2   428.00      0.0    209.1      4.9      0.5      0.0    132.8       56    277.0    275.7       95     0.000     0.000     0.000     0.000      107        0        0        0       10       11        3    20.319       89     40.5    8.221   -9.900     2.01    0.000    0.000       27        8     2087  Maize_short_Cahul_7May_Optimum_26_MPI.PRM
 Tot(108)        7        5     2088    143.2    564.2   1288.1   427.00      0.0    131.7     11.5     10.2      0.0    107.1       41    238.7    240.4       80     0.000     0.000     0.000     0.000      107        0        0        0        8       10       17    16.244       69     39.1    6.349   -9.900     1.84    0.000    0.000       27        8     2088  Maize_short_Cahul_7May_Optimum_26_MPI.PRM
 Tot(109)        7        5     2089    242.1    441.5   1043.7   427.00      0.0    231.3     10.8      8.8      0.0     96.6       55    253.0    251.3      100     0.000     0.000     0.000     0.000      107        0        0        0       21        2        0    20.189       96     40.0    8.082   -9.900     2.31    0.000    0.000       27        8     2089  Maize_short_Cahul_7May_Optimum_26_MPI.PRM
 Tot(110)        7        5     2090    186.7    474.0   1093.5   426.00      0.0    185.4      1.3      0.0      0.0     76.2       38    268.2    267.9       99     0.000     0.000     0.000     0.000      107        0        0        0       15        6        0    20.417       94     40.1    8.192   -9.900     2.38    0.000    0.000       27        8     2090  Maize_short_Cahul_7May_Optimum_26_MPI.PRM
 Tot(111)        7        5     2091    125.8    553.7   1270.9   425.00      0.0    125.6      0.2      0.0      0.0     98.5       42    251.9    253.7       80     0.000     0.000     0.000     0.000      107        0        0        0        9        8       15    17.030       72     39.5    6.734   -9.900     1.92    0.000    0.000       27        8     2091  Maize_short_Cahul_7May_Optimum_26_MPI.PRM
 Tot(112)        7        5     2092    204.4    436.3   1050.6   425.00      0.0    201.5      2.9      2.5      0.0    123.3       75    256.1    253.8       97     0.000     0.000     0.000     0.000      107        0        0        0       19        6        2    20.567       93     40.4    8.312   -9.900     2.19    0.000    0.000       27        8     2092  Maize_short_Cahul_7May_Optimum_26_MPI.PRM
 Tot(113)        7        5     2093    258.2    439.6   1037.1   424.00      0.0    236.5     21.7     18.4      0.0    104.6       68    277.5    278.3      100     0.000     0.000     0.000     0.000      107        0        0        0       20        5        0    21.444       96     40.1    8.610   -9.900     2.25    0.000    0.000       27        8     2093  Maize_short_Cahul_7May_Optimum_26_MPI.PRM
 Tot(114)        7        5     2094    128.9    590.7   1291.9   424.00      0.0    126.0      2.9      0.0      0.0     73.0       27    250.8    250.6       79     0.000     0.000     0.000     0.000      107        0        0        0        8       10       13    16.018       68     39.4    6.304   -9.900     1.95    0.000    0.000       27        8     2094  Maize_short_Cahul_7May_Optimum_26_MPI.PRM
 Tot(115)        7        5     2095    129.2    540.9   1182.2   423.00      0.0    128.7      0.5      0.5      0.0    129.8       50    210.3    212.4       78     0.000     0.000     0.000     0.000      105        0        0        0       15       22       20    13.363       59     40.0    5.349   -9.900     1.58    0.000    0.000       27        8     2095  Maize_short_Cahul_7May_Optimum_26_MPI.PRM
 Tot(116)        7        5     2096    108.9    596.7   1309.7   423.00      0.0    108.1      0.8      0.0      0.0     85.4       30    225.3    225.1       75     0.000     0.000     0.000     0.000      107        0        0        0       10       12       19    14.356       60     38.9    5.586   -9.900     1.80    0.000    0.000       27        8     2096  Maize_short_Cahul_7May_Optimum_26_MPI.PRM
 Tot(117)        7        5     2097    157.7    454.9   1106.4   422.00      0.0    156.6      1.1      1.5      0.0    106.6       67    260.7    259.7       90     0.000     0.000     0.000     0.000      107        0        0        0       19        1        7    19.576       87     39.9    7.805   -9.900     2.13    0.000    0.000       27        8     2097  Maize_short_Cahul_7May_Optimum_26_MPI.PRM
 Tot(118)        7        5     2098    244.6    455.0   1125.4   422.00      0.0    229.1     15.5     28.5      0.0    110.3       63    275.8    275.3       99     0.000     0.000     0.000     0.000      107        0        0        0       15        2        1    21.294       96     40.1    8.549   -9.900     2.21    0.000    0.000       27        8     2098  Maize_short_Cahul_7May_Optimum_26_MPI.PRM
 Tot(119)        7        5     2099    183.5    467.1   1043.4   421.00      0.0    180.0      3.5      3.1      0.0     97.5       48    249.0    248.1      100     0.000     0.000     0.000     0.000      107        0        0        0       17        3        0    19.773       96     40.0    7.917   -9.900     2.28    0.000    0.000       27        8     2099  Maize_short_Cahul_7May_Optimum_26_MPI.PRM
