AquaCrop 7.0 (August 2022) - Output created on (date) : 23-11-2022   at (time) : 11:38:05

    RunNr     Day1   Month1    Year1     Rain      ETo       GD     CO2      Irri   Infilt   Runoff    Drain   Upflow        E     E/Ex       Tr      TrW   Tr/Trx    SaltIn   SaltOut    SaltUp  SaltProf     Cycle   SaltStr  FertStr  WeedStr  TempStr   ExpStr   StoStr  BioMass  Brelative   HI    Y(dry)  Y(fresh)    WPet      Bin     Bout     DayN   MonthN    YearN
                                           mm       mm  degC.day    ppm        mm       mm       mm       mm       mm       mm        %       mm       mm        %    ton/ha    ton/ha    ton/ha    ton/ha      days       %        %        %        %        %        %    ton/ha        %       %    ton/ha   ton/ha    kg/m3   ton/ha   ton/ha
   Tot(1)        6        6     1981    179.0    479.2   1259.0   340.11      0.0    174.7      4.3      0.0      0.0    132.9       57    220.5    171.8       90     0.000     0.000     0.000     0.000      107        0       42       25       13       17        7    12.632       63     40.7    5.146   -9.900     1.46    0.000    0.000       26        9     1981  Maize_short_Cahul_6June_NonOptimum_26_MOHC.PRM
   Tot(2)        6        6     1982    226.5    453.3   1300.2   341.22      0.0    224.6      1.9      0.0      0.0    156.5       76    260.5    202.3       99     0.000     0.000     0.000     0.000      107        0       42       25        6        2        1    16.687       74     40.1    6.696   -9.900     1.61    0.000    0.000       26        9     1982  Maize_short_Cahul_6June_NonOptimum_26_MOHC.PRM
   Tot(3)        6        6     1983    282.8    466.4   1248.7   342.84      0.0    248.9     33.9     46.7      0.0    132.2       64    257.0    200.1       99     0.000     0.000     0.000     0.000      107        0       42       25        9        4        1    15.698       74     40.0    6.280   -9.900     1.61    0.000    0.000       26        9     1983  Maize_short_Cahul_6June_NonOptimum_26_MOHC.PRM
   Tot(4)        6        6     1984    143.5    453.8   1166.3   344.40      0.0    140.3      3.2      4.9      0.0    123.3       58    220.8    171.5       91     0.000     0.000     0.000     0.000      107        0       42       25       11        9        9    13.921       65     40.2    5.600   -9.900     1.63    0.000    0.000       26        9     1984  Maize_short_Cahul_6June_NonOptimum_26_MOHC.PRM
   Tot(5)        6        6     1985    324.4    461.9   1179.1   345.87      0.0    287.6     36.8     49.1      0.0    135.8       70    258.6    201.2       99     0.000     0.000     0.000     0.000      107        0       42       25       16        4        0    14.894       74     40.2    5.991   -9.900     1.52    0.000    0.000       26        9     1985  Maize_short_Cahul_6June_NonOptimum_26_MOHC.PRM
   Tot(6)        6        6     1986    149.3    523.6   1330.5   347.19      0.0    143.2      6.1      7.2      0.0    118.6       48    231.7    181.9       83     0.000     0.000     0.000     0.000      107        0       42       25        8       15       14    12.336       57     40.4    4.979   -9.900     1.42    0.000    0.000       26        9     1986  Maize_short_Cahul_6June_NonOptimum_26_MOHC.PRM
   Tot(7)        6        6     1987    210.0    499.3   1282.2   348.98      0.0    199.7     10.3      5.6      0.0    126.8       54    262.1    203.0       98     0.000     0.000     0.000     0.000      107        0       42       25        9        6        2    15.230       73     40.3    6.132   -9.900     1.58    0.000    0.000       26        9     1987  Maize_short_Cahul_6June_NonOptimum_26_MOHC.PRM
   Tot(8)        6        6     1988    164.3    492.5   1317.1   351.45      0.0    154.4      9.9      0.0      0.0    107.7       41    206.4    164.1       87     0.000     0.000     0.000     0.000      107        0       42       25        9       24        8    11.594       55     40.7    4.724   -9.900     1.50    0.000    0.000       26        9     1988  Maize_short_Cahul_6June_NonOptimum_26_MOHC.PRM
   Tot(9)        6        6     1989    263.2    446.7   1239.6   352.89      0.0    252.6     10.6      6.9      0.0    133.6       65    242.4    187.8      100     0.000     0.000     0.000     0.000      107        0       42       25       11        3        0    15.476       75     40.1    6.209   -9.900     1.65    0.000    0.000       26        9     1989  Maize_short_Cahul_6June_NonOptimum_26_MOHC.PRM
  Tot(10)        6        6     1990    126.8    508.1   1226.1   354.16      0.0    126.2      0.6      0.0      0.0    119.2       45    208.6    165.6       87     0.000     0.000     0.000     0.000      107        0       42       25       13       18       13    11.418       58     40.4    4.618   -9.900     1.41    0.000    0.000       26        9     1990  Maize_short_Cahul_6June_NonOptimum_26_MOHC.PRM
  Tot(11)        6        6     1991    222.0    443.1   1313.0   355.48      0.0    209.4     12.6     21.9      0.0    124.4       61    240.4    185.9      100     0.000     0.000     0.000     0.000      107        0       42       25        8        3        0    15.787       75     40.2    6.340   -9.900     1.74    0.000    0.000       26        9     1991  Maize_short_Cahul_6June_NonOptimum_26_MOHC.PRM
  Tot(12)        6        6     1992    139.3    517.8   1313.1   356.27      0.0    135.9      3.4      6.6      0.0    123.4       48    211.3    168.5       82     0.000     0.000     0.000     0.000      107        0       42       25       10       22       15    10.907       52     40.5    4.422   -9.900     1.32    0.000    0.000       26        9     1992  Maize_short_Cahul_6June_NonOptimum_26_MOHC.PRM
  Tot(13)        6        6     1993    141.0    501.0   1168.2   356.95      0.0    140.8      0.2      0.0      0.0    104.1       42    227.4    177.4       93     0.000     0.000     0.000     0.000      107        0       42       25       16       16        5    12.979       66     40.7    5.276   -9.900     1.59    0.000    0.000       26        9     1993  Maize_short_Cahul_6June_NonOptimum_26_MOHC.PRM
  Tot(14)        6        6     1994    201.5    505.3   1432.3   358.63      0.0    160.3     41.2     32.0      0.0     90.1       36    252.3    197.9       90     0.000     0.000     0.000     0.000      107        0       42       25        3       18        8    14.469       62     40.7    5.885   -9.900     1.72    0.000    0.000       26        9     1994  Maize_short_Cahul_6June_NonOptimum_26_MOHC.PRM
  Tot(15)        6        6     1995    191.4    495.2   1340.3   360.62      0.0    188.1      3.3      0.0      0.0    121.7       48    237.3    186.5       95     0.000     0.000     0.000     0.000      107        0       42       25        9       16        3    14.208       68     40.7    5.781   -9.900     1.61    0.000    0.000       26        9     1995  Maize_short_Cahul_6June_NonOptimum_26_MOHC.PRM
  Tot(16)        6        6     1996    216.5    496.5   1218.6   362.37      0.0    188.4     28.1      0.0      0.0     84.8       28    192.8    153.3       97     0.000     0.000     0.000     0.000      107        0       42       25       17       27        1    11.832       63     40.9    4.840   -9.900     1.74    0.000    0.000       26        9     1996  Maize_short_Cahul_6June_NonOptimum_26_MOHC.PRM
  Tot(17)        6        6     1997    374.7    437.8   1219.0   363.47      0.0    331.6     43.1     21.0      0.0    154.2       73    216.0    168.3      100     0.000     0.000     0.000     0.000      107        0       42       25       13        1        0    14.898       75     40.0    5.959   -9.900     1.61    0.000    0.000       26        9     1997  Maize_short_Cahul_6June_NonOptimum_26_MOHC.PRM
  Tot(18)        6        6     1998    210.6    490.9   1290.8   366.50      0.0    202.8      7.8      2.7      0.0    137.5       57    216.7    170.1       88     0.000     0.000     0.000     0.000      107        0       42       25       11       22        7    12.094       58     40.7    4.927   -9.900     1.39    0.000    0.000       26        9     1998  Maize_short_Cahul_6June_NonOptimum_26_MOHC.PRM
  Tot(19)        6        6     1999    276.9    515.7   1442.8   368.14      0.0    264.5     12.4     18.9      0.0    146.3       54    262.2    204.2      100     0.000     0.000     0.000     0.000      107        0       42       25        5       12        0    16.063       72     40.4    6.493   -9.900     1.59    0.000    0.000       26        9     1999  Maize_short_Cahul_6June_NonOptimum_26_MOHC.PRM
  Tot(20)        6        6     2000    158.9    542.0   1294.7   369.41      0.0    148.1     10.8      0.0      0.0     98.1       31    203.4    163.5       85     0.000     0.000     0.000     0.000      107        0       42       25       12       25        8    10.948       52     40.7    4.458   -9.900     1.48    0.000    0.000       26        9     2000  Maize_short_Cahul_6June_NonOptimum_26_MOHC.PRM
  Tot(21)        6        6     2001    221.7    527.9   1398.2   371.07      0.0    201.1     20.6      0.3      0.0    135.1       46    194.9    155.7       82     0.000     0.000     0.000     0.000      107        0       42       25        6       27       12    10.151       45     40.6    4.121   -9.900     1.25    0.000    0.000       26        9     2001  Maize_short_Cahul_6June_NonOptimum_26_MOHC.PRM
  Tot(22)        6        6     2002    281.0    528.2   1422.2   373.16      0.0    245.2     35.8     12.8      0.0    108.3       38    260.4    202.4      100     0.000     0.000     0.000     0.000      107        0       42       25        6        5        0    15.877       72     40.0    6.351   -9.900     1.72    0.000    0.000       26        9     2002  Maize_short_Cahul_6June_NonOptimum_26_MOHC.PRM
  Tot(23)        6        6     2003    140.3    548.0   1349.4   375.80      0.0    134.9      5.4      0.0      0.0    100.9       34    221.2    174.5       86     0.000     0.000     0.000     0.000      107        0       42       25        9       17       10    12.222       57     40.4    4.941   -9.900     1.53    0.000    0.000       26        9     2003  Maize_short_Cahul_6June_NonOptimum_26_MOHC.PRM
  Tot(24)        6        6     2004    228.7    508.4   1288.8   377.49      0.0    221.5      7.2      3.7      0.0    113.5       45    258.8    200.7      100     0.000     0.000     0.000     0.000      107        0       42       25        9        6        0    15.613       73     40.2    6.270   -9.900     1.68    0.000    0.000       26        9     2004  Maize_short_Cahul_6June_NonOptimum_26_MOHC.PRM
  Tot(25)        6        6     2005    352.7    506.6   1346.7   379.80      0.0    327.3     25.4     34.4      0.0    134.4       59    291.2    224.6      100     0.000     0.000     0.000     0.000      107        0       42       25        5        2        0    16.877       74     40.0    6.757   -9.900     1.59    0.000    0.000       26        9     2005  Maize_short_Cahul_6June_NonOptimum_26_MOHC.PRM
  Tot(26)        6        6     2006    156.6    550.8   1344.7   381.90      0.0    154.3      2.3      0.0      0.0    113.1       36    238.3    190.8       93     0.000     0.000     0.000     0.000      107        0       42       25        6       24        5    13.397       60     40.6    5.444   -9.900     1.55    0.000    0.000       26        9     2006  Maize_short_Cahul_6June_NonOptimum_26_MOHC.PRM
  Tot(27)        6        6     2007    159.1    626.4   1410.5   383.77      0.0    157.4      1.7      0.0      0.0    124.0       31    229.3    184.3       92     0.000     0.000     0.000     0.000      107        0       42       25        8       25        6    11.866       55     40.2    4.774   -9.900     1.35    0.000    0.000       26        9     2007  Maize_short_Cahul_6June_NonOptimum_26_MOHC.PRM
  Tot(28)        6        6     2008    197.7    569.5   1367.7   385.59      0.0    188.2      9.5      0.0      0.0    129.2       43    217.9    172.8       80     0.000     0.000     0.000     0.000      107        0       42       25       12       19       12    10.811       53     40.3    4.359   -9.900     1.26    0.000    0.000       26        9     2008  Maize_short_Cahul_6June_NonOptimum_26_MOHC.PRM
  Tot(29)        6        6     2009    176.3    588.9   1438.2   387.37      0.0    169.3      7.0      0.0      0.0    132.6       41    237.0    187.7       86     0.000     0.000     0.000     0.000      107        0       42       25        4       23       12    12.101       52     40.6    4.910   -9.900     1.33    0.000    0.000       26        9     2009  Maize_short_Cahul_6June_NonOptimum_26_MOHC.PRM
  Tot(30)        6        6     2010    247.1    521.6   1434.9   389.85      0.0    228.6     18.5     34.5      0.0    144.4       58    242.2    189.5       87     0.000     0.000     0.000     0.000      107        0       42       25        7       15        9    13.350       60     40.6    5.418   -9.900     1.40    0.000    0.000       26        9     2010  Maize_short_Cahul_6June_NonOptimum_26_MOHC.PRM
  Tot(31)        6        6     2011    144.1    558.1   1426.3   391.63      0.0    132.7     11.4     12.7      0.0    119.0       40    215.7    171.5       81     0.000     0.000     0.000     0.000      104        0       42       25        3       20       18    10.932       46     40.0    4.370   -9.900     1.31    0.000    0.000       26        9     2011  Maize_short_Cahul_6June_NonOptimum_26_MOHC.PRM
  Tot(32)        6        6     2012    172.7    628.8   1504.7   393.82      0.0    166.6      6.1      6.3      0.0    136.7       36    225.7    180.3       82     0.000     0.000     0.000     0.000      107        0       42       25        3       30       14    10.719       46     40.3    4.319   -9.900     1.19    0.000    0.000       26        9     2012  Maize_short_Cahul_6June_NonOptimum_26_MOHC.PRM
  Tot(33)        6        6     2013    278.4    535.9   1388.7   396.48      0.0    252.5     25.9     25.8      0.0    138.7       51    237.0    186.7       89     0.000     0.000     0.000     0.000      107        0       42       25        8       19        6    13.333       61     40.7    5.431   -9.900     1.45    0.000    0.000       26        9     2013  Maize_short_Cahul_6June_NonOptimum_26_MOHC.PRM
  Tot(34)        6        6     2014    153.0    567.9   1422.4   398.55      0.0    152.8      0.2      0.0      0.0    140.1       49    227.5    180.3       79     0.000     0.000     0.000     0.000      107        0       42       25        6       23       20    11.308       50     39.8    4.503   -9.900     1.23    0.000    0.000       26        9     2014  Maize_short_Cahul_6June_NonOptimum_26_MOHC.PRM
  Tot(35)        6        6     2015    140.8    604.0   1480.5   401.00      0.0    138.4      2.4      0.1      0.0    131.6       39    216.4    172.7       78     0.000     0.000     0.000     0.000      107        0       42       25        3       29       19    10.423       44     40.3    4.202   -9.900     1.21    0.000    0.000       26        9     2015  Maize_short_Cahul_6June_NonOptimum_26_MOHC.PRM
  Tot(36)        6        6     2016    168.2    577.0   1458.2   403.00      0.0    155.6     12.6      0.1      0.0    129.7       38    195.0    156.2       81     0.000     0.000     0.000     0.000      107        0       42       25        7       28       16     9.591       43     40.3    3.866   -9.900     1.19    0.000    0.000       26        9     2016  Maize_short_Cahul_6June_NonOptimum_26_MOHC.PRM
  Tot(37)        6        6     2017    233.5    561.6   1453.7   405.00      0.0    202.3     31.2      8.2      0.0    137.4       53    277.3    215.7       88     0.000     0.000     0.000     0.000      107        0       42       25        4        6       13    14.269       61     39.7    5.663   -9.900     1.37    0.000    0.000       26        9     2017  Maize_short_Cahul_6June_NonOptimum_26_MOHC.PRM
  Tot(38)        6        6     2018    165.7    536.5   1498.9   408.00      0.0    161.3      4.4      0.0      0.0    114.1       46    258.3    201.3       87     0.000     0.000     0.000     0.000      107        0       42       25        4        5       13    14.014       60     39.8    5.575   -9.900     1.50    0.000    0.000       26        9     2018  Maize_short_Cahul_6June_NonOptimum_26_MOHC.PRM
  Tot(39)        6        6     2019    147.0    605.5   1482.4   410.00      0.0    144.2      2.8      0.6      0.0    138.0       39    196.3    155.7       78     0.000     0.000     0.000     0.000       98        0       42       25        1       22       19     9.627       42     34.8    3.352   -9.900     1.01    0.000    0.000       26        9     2019  Maize_short_Cahul_6June_NonOptimum_26_MOHC.PRM
  Tot(40)        6        6     2020    101.0    627.4   1534.9   412.00      0.0     99.6      1.4      0.0      0.0    105.7       24    158.9    129.9       79     0.000     0.000     0.000     0.000      107        0       42       25        6       38       14     6.755       30     40.6    2.742   -9.900     1.04    0.000    0.000       26        9     2020  Maize_short_Cahul_6June_NonOptimum_26_MOHC.PRM
  Tot(41)        6        6     2021     33.5    636.4   1532.6   414.00      0.0     33.5      0.0      0.0      0.0     70.7       16    160.3    131.2       81     0.000     0.000     0.000     0.000       95        0       42       25        1       37       16     7.005       30     31.4    2.196   -9.900     0.97    0.000    0.000       26        9     2021  Maize_short_Cahul_6June_NonOptimum_26_MOHC.PRM
  Tot(42)        6        6     2022     66.1    657.6   1666.4   417.00      0.0     66.1      0.0      0.0      0.0     97.8       22    166.9    135.1       76     0.000     0.000     0.000     0.000       90        0       42       25        1       34       19     6.979       29     27.0    1.887   -9.900     0.74    0.000    0.000       26        9     2022  Maize_short_Cahul_6June_NonOptimum_26_MOHC.PRM
  Tot(43)        6        6     2023     55.0    668.6   1589.1   419.00      0.0     55.0      0.0      0.0      0.0     76.4       16    163.1    133.3       78     0.000     0.000     0.000     0.000      107        0       42       25        3       37       15     7.091       30     39.8    2.823   -9.900     1.18    0.000    0.000       26        9     2023  Maize_short_Cahul_6June_NonOptimum_26_MOHC.PRM
  Tot(44)        6        6     2024    241.5    609.0   1567.3   421.00      0.0    206.1     35.4     23.1      0.0    146.5       42    192.0    152.8       76     0.000     0.000     0.000     0.000      107        0       42       25        3       26       17     8.661       37     40.1    3.474   -9.900     1.03    0.000    0.000       26        9     2024  Maize_short_Cahul_6June_NonOptimum_26_MOHC.PRM
  Tot(45)        6        6     2025     86.0    625.1   1512.6   423.00      0.0     84.7      1.3      0.0      0.0     80.4       17    182.7    149.6       93     0.000     0.000     0.000     0.000      107        0       42       25        6       39        3     9.816       43     40.9    4.014   -9.900     1.53    0.000    0.000       26        9     2025  Maize_short_Cahul_6June_NonOptimum_26_MOHC.PRM
  Tot(46)        6        6     2026     50.7    702.6   1597.1   424.00      0.0     50.7      0.0      0.0      0.0     83.8       17    157.0    128.6       75     0.000     0.000     0.000     0.000       87        0       42       25        0       36       18     6.110       28     24.0    1.469   -9.900     0.63    0.000    0.000       26        9     2026  Maize_short_Cahul_6June_NonOptimum_26_MOHC.PRM
  Tot(47)        6        6     2027     53.7    677.5   1576.2   426.00      0.0     53.7      0.0      0.0      0.0     87.7       18    154.3    126.4       78     0.000     0.000     0.000     0.000       90        0       42       25        0       38       17     6.120       26     26.3    1.609   -9.900     0.67    0.000    0.000       26        9     2027  Maize_short_Cahul_6June_NonOptimum_26_MOHC.PRM
  Tot(48)        6        6     2028    127.1    649.6   1557.1   428.00      0.0    120.1      7.0      0.0      0.0    100.2       21    171.1    140.1       88     0.000     0.000     0.000     0.000      107        0       42       25        5       40        7     8.605       37     40.8    3.514   -9.900     1.30    0.000    0.000       26        9     2028  Maize_short_Cahul_6June_NonOptimum_26_MOHC.PRM
  Tot(49)        6        6     2029     61.7    636.0   1600.4   429.00      0.0     58.1      3.6      6.2      0.0     84.7       21    163.8    133.2       74     0.000     0.000     0.000     0.000       88        0       42       25        1       33       20     6.789       28     22.5    1.524   -9.900     0.63    0.000    0.000       26        9     2029  Maize_short_Cahul_6June_NonOptimum_26_MOHC.PRM
  Tot(50)        6        6     2030    110.8    726.1   1731.6   431.00      0.0     94.3     16.5     19.1      0.0    106.7       20    155.3    127.2       76     0.000     0.000     0.000     0.000       84        0       42       25        0       39       19     5.518       23     21.1    1.164   -9.900     0.45    0.000    0.000       26        9     2030  Maize_short_Cahul_6June_NonOptimum_26_MOHC.PRM
  Tot(51)        6        6     2031     51.2    637.8   1599.0   432.00      0.0     51.2      0.0      0.0      0.0     86.3       21    164.6    133.0       76     0.000     0.000     0.000     0.000       90        0       42       25        0       33       18     7.199       30     27.4    1.974   -9.900     0.79    0.000    0.000       26        9     2031  Maize_short_Cahul_6June_NonOptimum_26_MOHC.PRM
  Tot(52)        6        6     2032     28.2    735.1   1693.5   433.00      0.0     28.2      0.0      0.0      0.0     68.3       12    153.1    126.6       82     0.000     0.000     0.000     0.000      100        0       42       25        1       41       15     6.186       26     36.6    2.261   -9.900     1.02    0.000    0.000       26        9     2032  Maize_short_Cahul_6June_NonOptimum_26_MOHC.PRM
  Tot(53)        6        6     2033     49.9    702.5   1629.9   435.00      0.0     49.7      0.2      0.0      0.0     85.7       17    156.9    128.5       79     0.000     0.000     0.000     0.000       91        0       42       25        1       38       17     6.110       25     27.3    1.667   -9.900     0.69    0.000    0.000       26        9     2033  Maize_short_Cahul_6June_NonOptimum_26_MOHC.PRM
  Tot(54)        6        6     2034    147.5    605.6   1521.3   436.00      0.0    123.0     24.5      0.0      0.0    107.6       29    178.3    142.9       75     0.000     0.000     0.000     0.000      107        0       42       25        7       29       15     8.260       37     40.2    3.323   -9.900     1.16    0.000    0.000       26        9     2034  Maize_short_Cahul_6June_NonOptimum_26_MOHC.PRM
  Tot(55)        6        6     2035     75.1    638.2   1586.7   437.00      0.0     74.4      0.7      0.0      0.0    101.1       24    166.6    134.7       76     0.000     0.000     0.000     0.000       88        0       42       25        1       33       19     7.006       29     25.0    1.755   -9.900     0.68    0.000    0.000       26        9     2035  Maize_short_Cahul_6June_NonOptimum_26_MOHC.PRM
  Tot(56)        6        6     2036     88.4    646.4   1576.2   438.00      0.0     88.3      0.1      0.0      0.0    110.0       25    165.3    134.5       77     0.000     0.000     0.000     0.000       95        0       42       25        5       36       17     7.014       30     32.4    2.270   -9.900     0.86    0.000    0.000       26        9     2036  Maize_short_Cahul_6June_NonOptimum_26_MOHC.PRM
  Tot(57)        6        6     2037     23.2    680.7   1638.3   438.00      0.0     23.2      0.0      0.0      0.0     62.6       13    151.8    124.4       78     0.000     0.000     0.000     0.000       89        0       42       25        2       38       17     6.007       25     26.2    1.577   -9.900     0.74    0.000    0.000       26        9     2037  Maize_short_Cahul_6June_NonOptimum_26_MOHC.PRM
  Tot(58)        6        6     2038     66.3    586.5   1464.9   439.00      0.0     63.9      2.4      2.7      0.0     90.8       26    167.6    134.6       76     0.000     0.000     0.000     0.000       90        0       42       25        2       32       19     7.448       31     27.1    2.017   -9.900     0.79    0.000    0.000       26        9     2038  Maize_short_Cahul_6June_NonOptimum_26_MOHC.PRM
  Tot(59)        6        6     2039     81.3    686.7   1621.9   440.00      0.0     76.7      4.6      0.0      0.0     85.5       16    151.7    125.0       81     0.000     0.000     0.000     0.000       94        0       42       25        1       40       16     6.101       26     30.4    1.854   -9.900     0.88    0.000    0.000       26        9     2039  Maize_short_Cahul_6June_NonOptimum_26_MOHC.PRM
  Tot(60)        6        6     2040     62.3    670.5   1588.3   440.00      0.0     62.0      0.3      0.0      0.0     80.6       19    194.8    157.5       77     0.000     0.000     0.000     0.000      107        0       42       25        1       33       20     8.918       37     40.3    3.593   -9.900     1.30    0.000    0.000       26        9     2040  Maize_short_Cahul_6June_NonOptimum_26_MOHC.PRM
  Tot(61)        6        6     2041     65.9    704.3   1604.7   441.00      0.0     65.6      0.3      0.0      0.0     90.7       18    154.6    126.5       76     0.000     0.000     0.000     0.000       88        0       42       25        1       38       18     6.071       26     24.1    1.465   -9.900     0.63    0.000    0.000       26        9     2041  Maize_short_Cahul_6June_NonOptimum_26_MOHC.PRM
  Tot(62)        6        6     2042     53.2    599.0   1533.7   441.00      0.0     53.2      0.0      0.0      0.0     89.8       24    166.5    134.0       78     0.000     0.000     0.000     0.000       92        0       42       25        1       32       18     7.843       32     29.1    2.285   -9.900     0.89    0.000    0.000       26        9     2042  Maize_short_Cahul_6June_NonOptimum_26_MOHC.PRM
  Tot(63)        6        6     2043    111.3    676.6   1589.4   441.00      0.0    100.1     11.2      0.2      0.0     73.2       15    149.9    123.0       78     0.000     0.000     0.000     0.000       89        0       42       25        1       39       17     5.808       25     26.2    1.523   -9.900     0.74    0.000    0.000       26        9     2043  Maize_short_Cahul_6June_NonOptimum_26_MOHC.PRM
  Tot(64)        6        6     2044    150.2    588.1   1505.2   442.00      0.0    146.4      3.8      5.1      0.0    156.7       44    177.6    142.1       76     0.000     0.000     0.000     0.000      107        0       42       25        6       28       18     8.421       37     40.3    3.393   -9.900     1.01    0.000    0.000       26        9     2044  Maize_short_Cahul_6June_NonOptimum_26_MOHC.PRM
  Tot(65)        6        6     2045    120.2    637.3   1462.8   442.00      0.0    111.0      9.2      1.8      0.0    100.0       22    153.2    125.3       78     0.000     0.000     0.000     0.000       97        0       42       25        3       38       16     6.164       28     29.4    1.812   -9.900     0.77    0.000    0.000       26        9     2045  Maize_short_Cahul_6June_NonOptimum_26_MOHC.PRM
  Tot(66)        6        6     2046     25.4    766.9   1756.7   442.00      0.0     25.4      0.0      0.0      0.0     68.0       11    151.3    125.2       82     0.000     0.000     0.000     0.000       95        0       42       25        0       42       15     5.884       25     32.4    1.908   -9.900     0.87    0.000    0.000       26        9     2046  Maize_short_Cahul_6June_NonOptimum_26_MOHC.PRM
  Tot(67)        6        6     2047     15.3    664.6   1722.3   442.00      0.0     15.3      0.0      0.0      0.0     56.4       12    154.7    126.3       78     0.000     0.000     0.000     0.000       92        0       42       25        1       37       17     6.485       26     29.3    1.898   -9.900     0.91    0.000    0.000       26        9     2047  Maize_short_Cahul_6June_NonOptimum_26_MOHC.PRM
  Tot(68)        6        6     2048    271.9    601.5   1499.6   442.00      0.0    185.4     86.5     57.1      0.0    120.8       37    202.7    161.2       75     0.000     0.000     0.000     0.000      107        0       42       25        8       24       20     9.780       43     39.9    3.901   -9.900     1.21    0.000    0.000       26        9     2048  Maize_short_Cahul_6June_NonOptimum_26_MOHC.PRM
  Tot(69)        6        6     2049     51.7    630.2   1608.0   443.00      0.0     51.7      0.0      0.0      0.0     87.6       21    169.3    137.4       80     0.000     0.000     0.000     0.000       96        0       42       25        1       33       17     8.094       34     33.3    2.692   -9.900     1.06    0.000    0.000       26        9     2049  Maize_short_Cahul_6June_NonOptimum_26_MOHC.PRM
  Tot(70)        6        6     2050     81.4    642.5   1624.4   443.00      0.0     80.8      0.6      0.0      0.0     86.7       20    187.6    152.9       81     0.000     0.000     0.000     0.000      107        0       42       25        3       36       12     9.262       39     40.7    3.766   -9.900     1.37    0.000    0.000       26        9     2050  Maize_short_Cahul_6June_NonOptimum_26_MOHC.PRM
  Tot(71)        6        6     2051     53.0    671.5   1582.4   443.00      0.0     48.4      4.6     11.2      0.0     71.8       16    161.4    131.6       76     0.000     0.000     0.000     0.000       89        0       42       25        2       35       18     6.655       28     26.1    1.736   -9.900     0.76    0.000    0.000       26        9     2051  Maize_short_Cahul_6June_NonOptimum_26_MOHC.PRM
  Tot(72)        6        6     2052     92.9    627.4   1632.9   443.00      0.0     91.6      1.3      0.8      0.0    119.3       29    172.7    139.2       78     0.000     0.000     0.000     0.000       91        0       42       25        1       33       18     7.425       31     28.5    2.113   -9.900     0.74    0.000    0.000       26        9     2052  Maize_short_Cahul_6June_NonOptimum_26_MOHC.PRM
  Tot(73)        6        6     2053     82.5    663.5   1600.0   443.00      0.0     82.2      0.3      0.0      0.0    117.2       25    159.7    129.9       77     0.000     0.000     0.000     0.000       90        0       42       25        0       36       18     6.667       29     27.2    1.815   -9.900     0.68    0.000    0.000       26        9     2053  Maize_short_Cahul_6June_NonOptimum_26_MOHC.PRM
  Tot(74)        6        6     2054    176.9    618.7   1547.2   443.00      0.0    161.9     15.0     14.0      0.0    130.9       37    209.0    166.8       80     0.000     0.000     0.000     0.000      107        0       42       25        3       28       14    10.011       42     40.4    4.047   -9.900     1.19    0.000    0.000       26        9     2054  Maize_short_Cahul_6June_NonOptimum_26_MOHC.PRM
  Tot(75)        6        6     2055     78.9    689.9   1656.3   443.00      0.0     76.7      2.2      0.0      0.0     79.6       17    196.0    159.7       82     0.000     0.000     0.000     0.000      107        0       42       25        2       34       13     9.465       39     40.6    3.846   -9.900     1.40    0.000    0.000       26        9     2055  Maize_short_Cahul_6June_NonOptimum_26_MOHC.PRM
  Tot(76)        6        6     2056    122.7    686.1   1628.3   442.00      0.0    117.6      5.1      0.0      0.0    123.5       26    159.2    129.8       74     0.000     0.000     0.000     0.000       87        0       42       25        1       36       19     6.289       26     24.0    1.511   -9.900     0.58    0.000    0.000       26        9     2056  Maize_short_Cahul_6June_NonOptimum_26_MOHC.PRM
  Tot(77)        6        6     2057    104.3    657.3   1637.1   442.00      0.0     99.9      4.4      5.3      0.0    123.0       29    168.9    136.1       75     0.000     0.000     0.000     0.000       87        0       42       25        0       33       20     6.986       30     24.0    1.674   -9.900     0.58    0.000    0.000       26        9     2057  Maize_short_Cahul_6June_NonOptimum_26_MOHC.PRM
  Tot(78)        6        6     2058     67.6    668.4   1633.9   442.00      0.0     66.4      1.2      0.0      0.0     96.3       21    169.0    136.7       78     0.000     0.000     0.000     0.000       93        0       42       25        2       33       18     7.435       31     30.1    2.241   -9.900     0.89    0.000    0.000       26        9     2058  Maize_short_Cahul_6June_NonOptimum_26_MOHC.PRM
  Tot(79)        6        6     2059     52.9    678.2   1647.9   442.00      0.0     52.8      0.1      0.0      0.0     78.0       17    174.1    140.4       75     0.000     0.000     0.000     0.000      107        0       42       25        0       32       31     7.393       31     28.3    2.092   -9.900     0.83    0.000    0.000       26        9     2059  Maize_short_Cahul_6June_NonOptimum_26_MOHC.PRM
  Tot(80)        6        6     2060     53.8    630.1   1573.2   442.00      0.0     53.6      0.2      0.0      0.0     85.5       21    162.0    131.0       76     0.000     0.000     0.000     0.000       91        0       42       25        1       34       19     7.063       29     28.1    1.986   -9.900     0.83    0.000    0.000       26        9     2060  Maize_short_Cahul_6June_NonOptimum_26_MOHC.PRM
  Tot(81)        6        6     2061    124.7    637.7   1584.1   441.00      0.0    105.1     19.6      0.0      0.0     80.9       18    156.9    128.5       80     0.000     0.000     0.000     0.000       94        0       42       25        0       38       17     6.718       30     31.4    2.107   -9.900     0.92    0.000    0.000       26        9     2061  Maize_short_Cahul_6June_NonOptimum_26_MOHC.PRM
  Tot(82)        6        6     2062    125.8    648.4   1580.6   441.00      0.0    119.2      6.6      0.0      0.0    103.3       24    185.3    150.1       80     0.000     0.000     0.000     0.000      107        0       42       25        6       32       15     8.625       37     40.4    3.486   -9.900     1.21    0.000    0.000       26        9     2062  Maize_short_Cahul_6June_NonOptimum_26_MOHC.PRM
  Tot(83)        6        6     2063     83.1    636.5   1581.7   441.00      0.0     83.0      0.1      0.0      0.0     85.7       20    180.7    146.7       79     0.000     0.000     0.000     0.000      107        0       42       25        4       37       14     8.225       35     18.2    1.495   -9.900     0.56    0.000    0.000       26        9     2063  Maize_short_Cahul_6June_NonOptimum_26_MOHC.PRM
  Tot(84)        6        6     2064     79.1    650.3   1600.3   440.00      0.0     77.7      1.4      0.5      0.0     95.5       21    159.2    130.9       78     0.000     0.000     0.000     0.000       92        0       42       25        1       37       17     6.565       28     29.3    1.923   -9.900     0.80    0.000    0.000       26        9     2064  Maize_short_Cahul_6June_NonOptimum_26_MOHC.PRM
  Tot(85)        6        6     2065     52.5    722.6   1630.9   440.00      0.0     52.5      0.0      0.0      0.0     77.1       13    160.6    132.9       85     0.000     0.000     0.000     0.000      107        0       42       25        4       41       11     7.109       30     40.7    2.895   -9.900     1.22    0.000    0.000       26        9     2065  Maize_short_Cahul_6June_NonOptimum_26_MOHC.PRM
  Tot(86)        6        6     2066    234.5    588.7   1470.2   440.00      0.0    164.0     70.5      0.0      0.0    107.2       28    201.0    162.4       90     0.000     0.000     0.000     0.000      107        0       42       25        8       35        5    11.033       50     38.1    4.202   -9.900     1.36    0.000    0.000       26        9     2066  Maize_short_Cahul_6June_NonOptimum_26_MOHC.PRM
  Tot(87)        6        6     2067    106.3    648.8   1584.8   439.00      0.0    105.5      0.8      0.0      0.0     69.3       17    230.9    185.1       85     0.000     0.000     0.000     0.000      107        0       42       25        2       24       13    11.032       45     40.0    4.414   -9.900     1.47    0.000    0.000       26        9     2067  Maize_short_Cahul_6June_NonOptimum_26_MOHC.PRM
  Tot(88)        6        6     2068    166.5    545.2   1481.0   439.00      0.0    162.1      4.4      3.7      0.0    136.4       47    228.7    181.6       86     0.000     0.000     0.000     0.000      107        0       42       25        3       27       11    12.862       54     40.7    5.236   -9.900     1.43    0.000    0.000       26        9     2068  Maize_short_Cahul_6June_NonOptimum_26_MOHC.PRM
  Tot(89)        6        6     2069     69.6    620.8   1596.1   438.00      0.0     68.5      1.1      0.0      0.0     97.5       25    176.9    142.6       77     0.000     0.000     0.000     0.000       93        0       42       25        0       30       19     8.208       34     30.0    2.465   -9.900     0.90    0.000    0.000       26        9     2069  Maize_short_Cahul_6June_NonOptimum_26_MOHC.PRM
  Tot(90)        6        6     2070     19.6    611.2   1540.0   437.00      0.0     19.6      0.0      0.0      0.0     59.2       14    158.4    129.5       82     0.000     0.000     0.000     0.000       96        0       42       25        2       37       16     7.190       31     33.4    2.405   -9.900     1.12    0.000    0.000       26        9     2070  Maize_short_Cahul_6June_NonOptimum_26_MOHC.PRM
  Tot(91)        6        6     2071    217.7    553.1   1471.7   437.00      0.0    184.5     33.2     19.0      0.0    104.5       34    239.7    189.4       92     0.000     0.000     0.000     0.000      107        0       42       25        5       28        4    13.671       59     40.9    5.586   -9.900     1.62    0.000    0.000       26        9     2071  Maize_short_Cahul_6June_NonOptimum_26_MOHC.PRM
  Tot(92)        6        6     2072     39.3    617.8   1536.4   436.00      0.0     39.3      0.0      0.0      0.0     72.0       19    177.2    143.5       77     0.000     0.000     0.000     0.000       95        0       42       25        1       28       19     8.570       36     32.0    2.743   -9.900     1.11    0.000    0.000       26        9     2072  Maize_short_Cahul_6June_NonOptimum_26_MOHC.PRM
  Tot(93)        6        6     2073     22.0    684.6   1638.2   436.00      0.0     22.0      0.0      0.0      0.0     63.1       13    158.7    129.5       79     0.000     0.000     0.000     0.000       94        0       42       25        1       36       17     6.824       28     30.3    2.065   -9.900     0.94    0.000    0.000       26        9     2073  Maize_short_Cahul_6June_NonOptimum_26_MOHC.PRM
  Tot(94)        6        6     2074     67.1    624.1   1540.6   435.00      0.0     66.9      0.2      0.4      0.0     95.2       23    172.6    139.3       79     0.000     0.000     0.000     0.000       92        0       42       25        1       33       18     7.706       32     29.2    2.251   -9.900     0.85    0.000    0.000       26        9     2074  Maize_short_Cahul_6June_NonOptimum_26_MOHC.PRM
  Tot(95)        6        6     2075     88.4    575.7   1455.2   435.00      0.0     86.7      1.7      0.0      0.0     89.9       25    164.8    133.1       78     0.000     0.000     0.000     0.000       96        0       42       25        3       34       17     7.364       32     32.4    2.383   -9.900     0.97    0.000    0.000       26        9     2075  Maize_short_Cahul_6June_NonOptimum_26_MOHC.PRM
  Tot(96)        6        6     2076     47.7    704.4   1651.0   434.00      0.0     44.0      3.7     11.8      0.0     72.5       14    147.1    121.0       78     0.000     0.000     0.000     0.000       90        0       42       25        0       40       17     5.465       24     26.3    1.438   -9.900     0.66    0.000    0.000       26        9     2076  Maize_short_Cahul_6June_NonOptimum_26_MOHC.PRM
  Tot(97)        6        6     2077     45.6    684.3   1511.5   433.00      0.0     45.6      0.0      0.0      0.0     74.8       15    154.1    126.5       79     0.000     0.000     0.000     0.000       93        0       42       25        1       39       17     6.197       27     29.3    1.816   -9.900     0.81    0.000    0.000       26        9     2077  Maize_short_Cahul_6June_NonOptimum_26_MOHC.PRM
  Tot(98)        6        6     2078    123.8    607.8   1580.4   433.00      0.0    122.3      1.5      0.3      0.0    129.1       35    174.7    139.9       75     0.000     0.000     0.000     0.000       90        0       42       25        0       29       19     7.968       34     27.3    2.174   -9.900     0.73    0.000    0.000       26        9     2078  Maize_short_Cahul_6June_NonOptimum_26_MOHC.PRM
  Tot(99)        6        6     2079     92.3    633.4   1582.4   432.00      0.0     90.3      2.0      0.0      0.0     93.3       23    199.2    161.2       81     0.000     0.000     0.000     0.000      107        0       42       25        3       36       15     9.362       40     40.6    3.802   -9.900     1.30    0.000    0.000       26        9     2079  Maize_short_Cahul_6June_NonOptimum_26_MOHC.PRM
 Tot(100)        6        6     2080    114.7    655.6   1585.7   432.00      0.0    106.9      7.8      0.0      0.0     94.4       19    151.4    124.8       80     0.000     0.000     0.000     0.000      107        0       42       25        3       39       14     6.005       25     27.4    1.646   -9.900     0.67    0.000    0.000       26        9     2080  Maize_short_Cahul_6June_NonOptimum_26_MOHC.PRM
 Tot(101)        6        6     2081     61.9    698.4   1680.7   431.00      0.0     61.9      0.0      0.0      0.0     97.4       19    162.1    133.2       81     0.000     0.000     0.000     0.000       98        0       42       25        1       40       16     6.810       29     34.5    2.349   -9.900     0.93    0.000    0.000       26        9     2081  Maize_short_Cahul_6June_NonOptimum_26_MOHC.PRM
 Tot(102)        6        6     2082     37.7    719.5   1694.9   431.00      0.0     37.7      0.0      0.0      0.0     74.8       13    151.8    125.2       80     0.000     0.000     0.000     0.000       93        0       42       25        0       40       16     5.934       24     30.4    1.802   -9.900     0.84    0.000    0.000       26        9     2082  Maize_short_Cahul_6June_NonOptimum_26_MOHC.PRM
 Tot(103)        6        6     2083     91.8    660.7   1661.4   430.00      0.0     91.3      0.5      0.0      0.0     94.8       20    197.5    161.4       87     0.000     0.000     0.000     0.000      107        0       42       25        1       39       10     9.840       40     40.8    4.017   -9.900     1.37    0.000    0.000       26        9     2083  Maize_short_Cahul_6June_NonOptimum_26_MOHC.PRM
 Tot(104)        6        6     2084     91.7    688.4   1660.1   429.00      0.0     89.7      2.0      1.5      0.0    116.6       25    161.1    131.5       74     0.000     0.000     0.000     0.000       87        0       42       25        0       36       19     6.133       26     24.1    1.476   -9.900     0.54    0.000    0.000       26        9     2084  Maize_short_Cahul_6June_NonOptimum_26_MOHC.PRM
 Tot(105)        6        6     2085    185.6    584.9   1627.0   429.00      0.0    155.5     30.1      0.0      0.0     98.3       25    167.0    135.6       81     0.000     0.000     0.000     0.000      107        0       42       25        1       34       14     7.962       32     40.6    3.231   -9.900     1.22    0.000    0.000       26        9     2085  Maize_short_Cahul_6June_NonOptimum_26_MOHC.PRM
 Tot(106)        6        6     2086     66.7    596.5   1497.1   428.00      0.0     66.4      0.3      0.0      0.0     98.0       25    163.4    132.4       78     0.000     0.000     0.000     0.000       91        0       42       25        1       34       18     7.124       30     27.2    1.939   -9.900     0.76    0.000    0.000       26        9     2086  Maize_short_Cahul_6June_NonOptimum_26_MOHC.PRM
 Tot(107)        6        6     2087     94.6    673.4   1662.7   428.00      0.0     94.3      0.3      0.0      0.0     88.4       19    191.0    156.0       84     0.000     0.000     0.000     0.000      107        0       42       25        4       38       10     9.372       40     40.7    3.819   -9.900     1.37    0.000    0.000       26        9     2087  Maize_short_Cahul_6June_NonOptimum_26_MOHC.PRM
 Tot(108)        6        6     2088    167.2    602.4   1502.5   427.00      0.0    146.3     20.9      0.0      0.0     85.2       22    182.0    147.8       81     0.000     0.000     0.000     0.000      107        0       42       25        7       36       12     8.823       39     35.6    3.139   -9.900     1.17    0.000    0.000       26        9     2088  Maize_short_Cahul_6June_NonOptimum_26_MOHC.PRM
 Tot(109)        6        6     2089    163.8    579.9   1554.4   427.00      0.0    144.9     18.9      0.0      0.0     98.3       30    214.4    171.0       81     0.000     0.000     0.000     0.000      107        0       42       25        4       26       16    10.943       47     40.3    4.406   -9.900     1.41    0.000    0.000       26        9     2089  Maize_short_Cahul_6June_NonOptimum_26_MOHC.PRM
 Tot(110)        6        6     2090     67.1    668.5   1630.1   426.00      0.0     67.1      0.0      0.0      0.0     92.8       20    163.3    132.7       76     0.000     0.000     0.000     0.000       90        0       42       25        0       33       18     7.090       30     27.0    1.917   -9.900     0.78    0.000    0.000       26        9     2090  Maize_short_Cahul_6June_NonOptimum_26_MOHC.PRM
 Tot(111)        6        6     2091    110.8    584.6   1525.5   425.00      0.0    110.1      0.7      0.0      0.0     99.6       31    220.9    175.1       81     0.000     0.000     0.000     0.000      107        0       42       25        5       23       16    11.354       49     40.3    4.577   -9.900     1.43    0.000    0.000       26        9     2091  Maize_short_Cahul_6June_NonOptimum_26_MOHC.PRM
 Tot(112)        6        6     2092     89.2    598.3   1532.3   425.00      0.0     89.2      0.0      0.0      0.0    109.7       32    178.7    142.6       74     0.000     0.000     0.000     0.000       90        0       42       25        2       28       20     7.835       35     26.8    2.103   -9.900     0.77    0.000    0.000       26        9     2092  Maize_short_Cahul_6June_NonOptimum_26_MOHC.PRM
 Tot(113)        6        6     2093     54.3    629.6   1585.8   424.00      0.0     51.7      2.6      4.5      0.0     81.3       19    157.1    128.0       78     0.000     0.000     0.000     0.000       90        0       42       25        1       36       17     6.514       27     27.2    1.775   -9.900     0.75    0.000    0.000       26        9     2093  Maize_short_Cahul_6June_NonOptimum_26_MOHC.PRM
 Tot(114)        6        6     2094    179.6    571.9   1467.3   424.00      0.0    124.8     54.8      0.0      0.0     98.9       27    175.2    141.2       80     0.000     0.000     0.000     0.000      107        0       42       25        8       32       12     8.882       40     40.5    3.599   -9.900     1.31    0.000    0.000       26        9     2094  Maize_short_Cahul_6June_NonOptimum_26_MOHC.PRM
 Tot(115)        6        6     2095    249.4    576.4   1479.9   423.00      0.0    208.7     40.7      5.2      0.0    137.0       40    173.2    139.5       75     0.000     0.000     0.000     0.000       87        0       42       25        1       31       20     7.138       32     24.0    1.710   -9.900     0.59    0.000    0.000       26        9     2095  Maize_short_Cahul_6June_NonOptimum_26_MOHC.PRM
 Tot(116)        6        6     2096     66.0    700.9   1731.9   423.00      0.0     66.0      0.0      0.0      0.0     99.9       19    164.3    135.0       83     0.000     0.000     0.000     0.000      102        0       42       25        0       37       15     7.299       30     38.5    2.813   -9.900     1.07    0.000    0.000       26        9     2096  Maize_short_Cahul_6June_NonOptimum_26_MOHC.PRM
 Tot(117)        6        6     2097    134.1    616.6   1577.5   422.00      0.0     98.3     35.8      1.9      0.0     74.9       18    157.4    127.7       74     0.000     0.000     0.000     0.000       88        0       42       25        1       35       19     6.382       27     25.1    1.599   -9.900     0.70    0.000    0.000       26        9     2097  Maize_short_Cahul_6June_NonOptimum_26_MOHC.PRM
 Tot(118)        6        6     2098     36.0    639.3   1487.6   422.00      0.0     35.6      0.4      0.0      0.0     51.0       13    200.4    159.8       78     0.000     0.000     0.000     0.000       98        0       42       25        1       24       19     9.031       39     34.9    3.147   -9.900     1.26    0.000    0.000       26        9     2098  Maize_short_Cahul_6June_NonOptimum_26_MOHC.PRM
 Tot(119)        6        6     2099     24.2    771.5   1719.7   421.00      0.0     24.2      0.0      0.0      0.0     66.0       11    149.4    123.8       81     0.000     0.000     0.000     0.000       94        0       42       25        0       42       16     5.469       23     23.0    1.256   -9.900     0.59    0.000    0.000       26        9     2099  Maize_short_Cahul_6June_NonOptimum_26_MOHC.PRM
