AquaCrop 7.0 (August 2022) - Output created on (date) : 24-11-2022   at (time) : 10:16:42

    RunNr     Day1   Month1    Year1     Rain      ETo       GD     CO2      Irri   Infilt   Runoff    Drain   Upflow        E     E/Ex       Tr      TrW   Tr/Trx    SaltIn   SaltOut    SaltUp  SaltProf     Cycle   SaltStr  FertStr  WeedStr  TempStr   ExpStr   StoStr  BioMass  Brelative   HI    Y(dry)  Y(fresh)    WPet      Bin     Bout     DayN   MonthN    YearN
                                           mm       mm  degC.day    ppm        mm       mm       mm       mm       mm       mm        %       mm       mm        %    ton/ha    ton/ha    ton/ha    ton/ha      days       %        %        %        %        %        %    ton/ha        %       %    ton/ha   ton/ha    kg/m3   ton/ha   ton/ha
   Tot(1)        7        5     1981    150.4    483.8   1212.1   340.11      0.0    145.9      4.5     12.1      0.0     84.3       41    248.4    192.9       87     0.000     0.000     0.000     0.000      107        0       42       25       12        5        9    13.734       64     39.6    5.444   -9.900     1.64    0.000    0.000       27        8     1981  Maize_short_Chisinau_7May_NonOptimum_85_NCC.PRM
   Tot(2)        7        5     1982    192.0    471.0   1188.7   341.22      0.0    191.9      0.1      0.0      0.0     76.4       35    258.6    198.8      100     0.000     0.000     0.000     0.000      107        0       42       25       11        2        0    15.957       74     40.0    6.384   -9.900     1.91    0.000    0.000       27        8     1982  Maize_short_Chisinau_7May_NonOptimum_85_NCC.PRM
   Tot(3)        7        5     1983    269.2    465.2   1233.5   342.84      0.0    253.3     15.9     23.6      0.0     99.3       48    261.7    202.2      100     0.000     0.000     0.000     0.000      107        0       42       25        9        2        0    16.019       75     40.1    6.418   -9.900     1.78    0.000    0.000       27        8     1983  Maize_short_Chisinau_7May_NonOptimum_85_NCC.PRM
   Tot(4)        7        5     1984    239.1    438.2   1067.3   344.40      0.0    237.1      2.0      2.8      0.0    134.8       75    245.6    191.3      100     0.000     0.000     0.000     0.000      107        0       42       25       17        0        0    15.222       75     40.0    6.090   -9.900     1.60    0.000    0.000       27        8     1984  Maize_short_Chisinau_7May_NonOptimum_85_NCC.PRM
   Tot(5)        7        5     1985    292.8    461.8   1172.6   345.87      0.0    263.1     29.7     63.0      0.0    102.2       53    265.5    202.8      100     0.000     0.000     0.000     0.000      107        0       42       25       13        0        0    15.701       75     40.0    6.281   -9.900     1.71    0.000    0.000       27        8     1985  Maize_short_Chisinau_7May_NonOptimum_85_NCC.PRM
   Tot(6)        7        5     1986    172.4    527.7   1261.6   347.19      0.0    171.9      0.5      0.0      0.0     89.5       39    281.4    219.1       93     0.000     0.000     0.000     0.000      107        0       42       25        8        5        4    14.907       69     40.0    5.965   -9.900     1.61    0.000    0.000       27        8     1986  Maize_short_Chisinau_7May_NonOptimum_85_NCC.PRM
   Tot(7)        7        5     1987    259.6    481.6   1137.9   348.98      0.0    253.3      6.3      0.0      0.0    110.0       59    294.0    227.1      100     0.000     0.000     0.000     0.000      107        0       42       25       15        3        0    15.808       75     40.2    6.348   -9.900     1.57    0.000    0.000       27        8     1987  Maize_short_Chisinau_7May_NonOptimum_85_NCC.PRM
   Tot(8)        7        5     1988    236.3    471.5   1252.6   351.45      0.0    227.3      9.0     15.1      0.0    121.2       71    286.2    223.5       93     0.000     0.000     0.000     0.000      107        0       42       25        9        3        5    15.514       70     39.9    6.196   -9.900     1.52    0.000    0.000       27        8     1988  Maize_short_Chisinau_7May_NonOptimum_85_NCC.PRM
   Tot(9)        7        5     1989    210.4    486.7   1164.0   352.89      0.0    207.5      2.9      2.5      0.0     95.5       49    291.8    224.6       99     0.000     0.000     0.000     0.000      107        0       42       25       14        3        1    16.171       74     40.2    6.499   -9.900     1.68    0.000    0.000       27        8     1989  Maize_short_Chisinau_7May_NonOptimum_85_NCC.PRM
  Tot(10)        7        5     1990    161.6    507.1   1149.5   354.16      0.0    158.4      3.2      2.2      0.0    115.0       55    257.2    200.1       86     0.000     0.000     0.000     0.000      107        0       42       25       16        5       11    13.812       62     39.9    5.514   -9.900     1.48    0.000    0.000       27        8     1990  Maize_short_Chisinau_7May_NonOptimum_85_NCC.PRM
  Tot(11)        7        5     1991    438.7    420.7   1183.0   355.48      0.0    393.0     45.7     66.9      0.0    123.6       82    281.3    217.0      100     0.000     0.000     0.000     0.000      107        0       42       25       17        0        0    17.231       75     40.0    6.894   -9.900     1.70    0.000    0.000       27        8     1991  Maize_short_Chisinau_7May_NonOptimum_85_NCC.PRM
  Tot(12)        7        5     1992    191.1    523.2   1230.9   356.27      0.0    188.5      2.6      5.7      0.0    128.5       66    273.6    212.5       83     0.000     0.000     0.000     0.000      107        0       42       25       16        4       13    13.651       60     39.5    5.391   -9.900     1.34    0.000    0.000       27        8     1992  Maize_short_Chisinau_7May_NonOptimum_85_NCC.PRM
  Tot(13)        7        5     1993    202.8    503.8   1154.4   356.95      0.0    196.6      6.2     19.9      0.0    106.9       53    274.0    212.1       93     0.000     0.000     0.000     0.000      107        0       42       25       13        3        5    14.548       70     39.9    5.807   -9.900     1.52    0.000    0.000       27        8     1993  Maize_short_Chisinau_7May_NonOptimum_85_NCC.PRM
  Tot(14)        7        5     1994    258.9    536.5   1263.4   358.63      0.0    219.5     39.4      7.8      0.0    105.8       45    256.5    201.0       84     0.000     0.000     0.000     0.000      107        0       42       25       10       11       11    12.833       57     39.7    5.096   -9.900     1.41    0.000    0.000       27        8     1994  Maize_short_Chisinau_7May_NonOptimum_85_NCC.PRM
  Tot(15)        7        5     1995    186.0    502.8   1281.6   360.62      0.0    184.0      2.0      2.1      0.0     91.1       44    283.7    219.6       91     0.000     0.000     0.000     0.000      107        0       42       25        8        6        6    15.609       68     40.1    6.258   -9.900     1.67    0.000    0.000       27        8     1995  Maize_short_Chisinau_7May_NonOptimum_85_NCC.PRM
  Tot(16)        7        5     1996    148.0    541.5   1272.6   362.37      0.0    147.1      0.9      0.0      0.0    101.4       38    231.0    181.7       85     0.000     0.000     0.000     0.000      107        0       42       25       10       18       10    12.116       55     40.5    4.906   -9.900     1.48    0.000    0.000       27        8     1996  Maize_short_Chisinau_7May_NonOptimum_85_NCC.PRM
  Tot(17)        7        5     1997    305.0    448.8   1194.3   363.47      0.0    288.7     16.3      0.0      0.0     83.2       41    258.3    200.5      100     0.000     0.000     0.000     0.000      107        0       42       25       12        3        0    16.781       75     40.0    6.718   -9.900     1.97    0.000    0.000       27        8     1997  Maize_short_Chisinau_7May_NonOptimum_85_NCC.PRM
  Tot(18)        7        5     1998    210.4    488.7   1249.2   366.50      0.0    205.7      4.7     10.9      0.0    111.7       61    290.0    223.4       94     0.000     0.000     0.000     0.000      107        0       42       25       14        1        5    15.740       71     39.9    6.287   -9.900     1.57    0.000    0.000       27        8     1998  Maize_short_Chisinau_7May_NonOptimum_85_NCC.PRM
  Tot(19)        7        5     1999    158.4    516.7   1334.1   368.14      0.0    157.0      1.4      0.0      0.0    100.6       45    268.0    209.4       87     0.000     0.000     0.000     0.000      107        0       42       25        8        7       10    14.361       61     40.1    5.758   -9.900     1.56    0.000    0.000       27        8     1999  Maize_short_Chisinau_7May_NonOptimum_85_NCC.PRM
  Tot(20)        7        5     2000    167.4    572.2   1257.5   369.41      0.0    163.5      3.9      0.0      0.0     68.3       25    276.6    216.9       91     0.000     0.000     0.000     0.000      107        0       42       25       11       15        6    14.018       64     40.2    5.631   -9.900     1.63    0.000    0.000       27        8     2000  Maize_short_Chisinau_7May_NonOptimum_85_NCC.PRM
  Tot(21)        7        5     2001    210.4    518.6   1269.3   371.07      0.0    189.0     21.4     20.8      0.0    114.9       57    275.9    213.2       85     0.000     0.000     0.000     0.000      107        0       42       25       13        2       12    14.489       63     39.6    5.734   -9.900     1.47    0.000    0.000       27        8     2001  Maize_short_Chisinau_7May_NonOptimum_85_NCC.PRM
  Tot(22)        7        5     2002    285.3    517.8   1347.8   373.16      0.0    259.1     26.2      0.0      0.0    101.6       45    297.0    230.4       96     0.000     0.000     0.000     0.000      107        0       42       25        7       18        2    16.142       69     40.9    6.603   -9.900     1.66    0.000    0.000       27        8     2002  Maize_short_Chisinau_7May_NonOptimum_85_NCC.PRM
  Tot(23)        7        5     2003    186.5    574.0   1346.0   375.80      0.0    185.1      1.4      0.0      0.0     79.3       27    298.2    233.0       98     0.000     0.000     0.000     0.000      107        0       42       25        6       10        1    16.111       70     40.1    6.458   -9.900     1.71    0.000    0.000       27        8     2003  Maize_short_Chisinau_7May_NonOptimum_85_NCC.PRM
  Tot(24)        7        5     2004    218.3    504.4   1151.0   377.49      0.0    209.4      8.9      0.0      0.0    107.5       51    288.6    225.0       96     0.000     0.000     0.000     0.000      107        0       42       25       16       11        3    15.863       70     40.3    6.397   -9.900     1.62    0.000    0.000       27        8     2004  Maize_short_Chisinau_7May_NonOptimum_85_NCC.PRM
  Tot(25)        7        5     2005    328.8    485.2   1234.8   379.80      0.0    312.1     16.7     20.4      0.0    126.4       64    298.8    230.9      100     0.000     0.000     0.000     0.000      107        0       42       25       10        1        0    17.366       75     40.1    6.959   -9.900     1.64    0.000    0.000       27        8     2005  Maize_short_Chisinau_7May_NonOptimum_85_NCC.PRM
  Tot(26)        7        5     2006    272.0    533.8   1259.8   381.90      0.0    265.7      6.3      5.5      0.0    142.1       70    318.0    246.4       94     0.000     0.000     0.000     0.000      107        0       42       25       10        4        5    16.158       70     40.2    6.498   -9.900     1.41    0.000    0.000       27        8     2006  Maize_short_Chisinau_7May_NonOptimum_85_NCC.PRM
  Tot(27)        7        5     2007    144.6    648.6   1473.6   383.77      0.0    144.1      0.5      0.0      0.0    103.1       31    250.0    199.0       78     0.000     0.000     0.000     0.000      107        0       42       25        2       20       16    11.151       47     40.1    4.473   -9.900     1.27    0.000    0.000       27        8     2007  Maize_short_Chisinau_7May_NonOptimum_85_NCC.PRM
  Tot(28)        7        5     2008    177.3    560.5   1291.6   385.59      0.0    172.8      4.5      0.0      0.0     88.5       38    300.9    233.9       88     0.000     0.000     0.000     0.000      107        0       42       25        6       10        9    15.116       64     40.2    6.082   -9.900     1.56    0.000    0.000       27        8     2008  Maize_short_Chisinau_7May_NonOptimum_85_NCC.PRM
  Tot(29)        7        5     2009    161.5    583.3   1333.2   387.37      0.0    160.0      1.5      0.0      0.0     86.6       33    293.0    228.8       86     0.000     0.000     0.000     0.000      107        0       42       25        6       10       11    14.287       61     39.9    5.698   -9.900     1.50    0.000    0.000       27        8     2009  Maize_short_Chisinau_7May_NonOptimum_85_NCC.PRM
  Tot(30)        7        5     2010    248.4    518.6   1414.0   389.85      0.0    235.0     13.4      0.2      0.0    121.5       59    315.2    243.3       96     0.000     0.000     0.000     0.000      107        0       42       25        7        1        3    16.950       72     40.0    6.776   -9.900     1.55    0.000    0.000       27        8     2010  Maize_short_Chisinau_7May_NonOptimum_85_NCC.PRM
  Tot(31)        7        5     2011    234.3    546.6   1320.9   391.63      0.0    220.0     14.3      7.4      0.0    112.6       48    306.3    237.6       95     0.000     0.000     0.000     0.000      107        0       42       25        6        2        4    16.151       71     40.0    6.458   -9.900     1.54    0.000    0.000       27        8     2011  Maize_short_Chisinau_7May_NonOptimum_85_NCC.PRM
  Tot(32)        7        5     2012    192.6    618.6   1442.0   393.82      0.0    189.8      2.8      1.7      0.0    129.4       45    271.7    214.9       80     0.000     0.000     0.000     0.000      107        0       42       25        6       19       15    12.345       52     40.0    4.941   -9.900     1.23    0.000    0.000       27        8     2012  Maize_short_Chisinau_7May_NonOptimum_85_NCC.PRM
  Tot(33)        7        5     2013    286.6    541.7   1380.1   396.48      0.0    259.3     27.3      1.1      0.0    118.5       54    322.6    250.5       94     0.000     0.000     0.000     0.000      107        0       42       25        4        2        4    16.955       71     39.9    6.770   -9.900     1.53    0.000    0.000       27        8     2013  Maize_short_Chisinau_7May_NonOptimum_85_NCC.PRM
  Tot(34)        7        5     2014    244.6    539.8   1326.2   398.55      0.0    239.3      5.3      8.4      0.0    121.7       59    306.3    236.1       90     0.000     0.000     0.000     0.000      107        0       42       25        7        6        8    15.565       66     40.0    6.224   -9.900     1.45    0.000    0.000       27        8     2014  Maize_short_Chisinau_7May_NonOptimum_85_NCC.PRM
  Tot(35)        7        5     2015    123.0    600.5   1355.8   402.00      0.0    122.8      0.2      0.3      0.0     77.9       29    262.6    207.0       79     0.000     0.000     0.000     0.000      107        0       42       25        6       10       16    12.620       54     39.5    4.982   -9.900     1.46    0.000    0.000       27        8     2015  Maize_short_Chisinau_7May_NonOptimum_85_NCC.PRM
  Tot(36)        7        5     2016    255.7    540.8   1325.7   404.00      0.0    238.9     16.8     33.2      0.0    141.5       73    285.0    221.1       81     0.000     0.000     0.000     0.000      107        0       42       25       10        5       15    13.877       58     39.7    5.508   -9.900     1.29    0.000    0.000       27        8     2016  Maize_short_Chisinau_7May_NonOptimum_85_NCC.PRM
  Tot(37)        7        5     2017    299.1    552.7   1316.4   407.00      0.0    280.2     18.9     14.6      0.0    112.9       53    345.5    266.0       98     0.000     0.000     0.000     0.000      107        0       42       25        9        2        1    17.478       74     40.1    7.003   -9.900     1.53    0.000    0.000       27        8     2017  Maize_short_Chisinau_7May_NonOptimum_85_NCC.PRM
  Tot(38)        7        5     2018    279.9    546.1   1430.7   410.00      0.0    265.8     14.1      6.4      0.0    100.9       42    319.4    247.0      100     0.000     0.000     0.000     0.000      107        0       42       25        5        2        0    17.641       74     40.0    7.057   -9.900     1.68    0.000    0.000       27        8     2018  Maize_short_Chisinau_7May_NonOptimum_85_NCC.PRM
  Tot(39)        7        5     2019    233.9    552.0   1390.8   413.00      0.0    225.8      8.1     15.5      0.0    132.2       61    296.4    232.9       87     0.000     0.000     0.000     0.000      107        0       42       25        3        9       10    15.185       64     40.1    6.096   -9.900     1.42    0.000    0.000       27        8     2019  Maize_short_Chisinau_7May_NonOptimum_85_NCC.PRM
  Tot(40)        7        5     2020    141.8    574.9   1295.7   416.00      0.0    135.4      6.4      9.9      0.0    120.7       45    223.5    175.6       77     0.000     0.000     0.000     0.000      103        0       42       25       11       13       19    10.818       46     39.2    4.244   -9.900     1.25    0.000    0.000       27        8     2020  Maize_short_Chisinau_7May_NonOptimum_85_NCC.PRM
  Tot(41)        7        5     2021    156.6    557.8   1288.6   419.00      0.0    154.0      2.6      5.0      0.0    100.5       44    269.0    208.4       83     0.000     0.000     0.000     0.000      107        0       42       25        7        3       15    13.269       57     39.4    5.225   -9.900     1.41    0.000    0.000       27        8     2021  Maize_short_Chisinau_7May_NonOptimum_85_NCC.PRM
  Tot(42)        7        5     2022    211.4    459.8   1056.0   422.00      0.0    201.0     10.4     36.6      0.0    120.2       75    258.0    199.6       89     0.000     0.000     0.000     0.000      107        0       42       25       20        1        8    14.945       67     39.9    5.964   -9.900     1.58    0.000    0.000       27        8     2022  Maize_short_Chisinau_7May_NonOptimum_85_NCC.PRM
  Tot(43)        7        5     2023    221.7    501.6   1130.7   425.00      0.0    204.7     17.0     28.9      0.0     99.7       51    239.7    186.9       83     0.000     0.000     0.000     0.000      107        0       42       25       17       10        9    12.564       58     40.3    5.068   -9.900     1.49    0.000    0.000       27        8     2023  Maize_short_Chisinau_7May_NonOptimum_85_NCC.PRM
  Tot(44)        7        5     2024    114.8    649.8   1444.5   428.00      0.0    113.9      0.9      0.0      0.0    103.7       31    229.1    180.2       75     0.000     0.000     0.000     0.000       99        0       42       25        2       15       20    10.217       42     35.3    3.606   -9.900     1.09    0.000    0.000       27        8     2024  Maize_short_Chisinau_7May_NonOptimum_85_NCC.PRM
  Tot(45)        7        5     2025    219.0    523.5   1287.5   431.00      0.0    217.8      1.2      1.2      0.0    138.8       70    295.0    227.5       90     0.000     0.000     0.000     0.000      107        0       42       25        7        1        9    15.682       66     39.8    6.240   -9.900     1.44    0.000    0.000       27        8     2025  Maize_short_Chisinau_7May_NonOptimum_85_NCC.PRM
  Tot(46)        7        5     2026    257.2    431.0    980.7   435.00      0.0    245.8     11.4     24.3      0.0    120.0       76    248.7    190.6      100     0.000     0.000     0.000     0.000      107        0       42       25       22        1        0    15.538       75     40.1    6.224   -9.900     1.69    0.000    0.000       27        8     2026  Maize_short_Chisinau_7May_NonOptimum_85_NCC.PRM
  Tot(47)        7        5     2027     98.5    546.2   1157.6   438.00      0.0     95.9      2.6     10.9      0.0     96.9       42    209.6    165.4       77     0.000     0.000     0.000     0.000      106        0       42       25       18        7       19    11.047       49     39.1    4.324   -9.900     1.41    0.000    0.000       27        8     2027  Maize_short_Chisinau_7May_NonOptimum_85_NCC.PRM
  Tot(48)        7        5     2028    176.5    581.9   1342.3   442.00      0.0    167.4      9.1     24.7      0.0    123.3       52    242.9    189.7       77     0.000     0.000     0.000     0.000      105        0       42       25        7        9       20    11.905       49     38.8    4.621   -9.900     1.26    0.000    0.000       27        8     2028  Maize_short_Chisinau_7May_NonOptimum_85_NCC.PRM
  Tot(49)        7        5     2029     97.3    576.9   1271.7   445.00      0.0     94.8      2.5      8.7      0.0    101.6       38    202.7    158.4       74     0.000     0.000     0.000     0.000       99        0       42       25       13       14       20     9.749       42     35.4    3.449   -9.900     1.15    0.000    0.000       27        8     2029  Maize_short_Chisinau_7May_NonOptimum_85_NCC.PRM
  Tot(50)        7        5     2030    137.2    636.4   1412.3   449.00      0.0    134.1      3.1     10.6      0.0    126.9       38    201.2    159.4       74     0.000     0.000     0.000     0.000       92        0       42       25       11       26       20     8.322       34     28.9    2.404   -9.900     0.74    0.000    0.000       27        8     2030  Maize_short_Chisinau_7May_NonOptimum_85_NCC.PRM
  Tot(51)        7        5     2031     97.4    573.0   1247.8   452.00      0.0     96.2      1.2      4.3      0.0     87.8       35    226.0    176.5       76     0.000     0.000     0.000     0.000      105        0       42       25       10       11       20    11.504       49     39.2    4.506   -9.900     1.44    0.000    0.000       27        8     2031  Maize_short_Chisinau_7May_NonOptimum_85_NCC.PRM
  Tot(52)        7        5     2032    177.9    596.7   1329.8   456.00      0.0    161.3     16.6     24.0      0.0    135.3       52    221.0    174.0       70     0.000     0.000     0.000     0.000      107        0       42       25       11       21       24    10.341       43     39.5    4.085   -9.900     1.15    0.000    0.000       27        8     2032  Maize_short_Chisinau_7May_NonOptimum_85_NCC.PRM
  Tot(53)        7        5     2033     95.2    584.7   1327.1   460.00      0.0     95.2      0.0      0.0      0.0    110.5       38    202.3    159.2       75     0.000     0.000     0.000     0.000       99        0       42       25        9       17       20    10.234       42     35.5    3.631   -9.900     1.16    0.000    0.000       27        8     2033  Maize_short_Chisinau_7May_NonOptimum_85_NCC.PRM
  Tot(54)        7        5     2034    128.1    504.4   1189.1   464.00      0.0    124.0      4.1     16.1      0.0    106.5       51    216.8    169.2       80     0.000     0.000     0.000     0.000      104        0       42       25       14       11       19    11.397       48     39.9    4.546   -9.900     1.41    0.000    0.000       27        8     2034  Maize_short_Chisinau_7May_NonOptimum_85_NCC.PRM
  Tot(55)        7        5     2035    149.3    583.3   1298.4   468.00      0.0    144.8      4.5      0.2      0.0    107.1       50    263.1    204.3       77     0.000     0.000     0.000     0.000      107        0       42       25        9        5       19    12.838       53     38.8    4.979   -9.900     1.35    0.000    0.000       27        8     2035  Maize_short_Chisinau_7May_NonOptimum_85_NCC.PRM
  Tot(56)        7        5     2036    166.6    465.8   1143.8   472.00      0.0    164.5      2.1      4.5      0.0     95.1       52    261.6    201.7       97     0.000     0.000     0.000     0.000      107        0       42       25       16        3        2    15.666       72     40.0    6.266   -9.900     1.76    0.000    0.000       27        8     2036  Maize_short_Chisinau_7May_NonOptimum_85_NCC.PRM
  Tot(57)        7        5     2037    195.6    575.0   1363.0   476.00      0.0    184.1     11.5      6.8      0.0     87.9       37    289.8    225.1       86     0.000     0.000     0.000     0.000      107        0       42       25        7        3        9    15.279       63     39.7    6.065   -9.900     1.61    0.000    0.000       27        8     2037  Maize_short_Chisinau_7May_NonOptimum_85_NCC.PRM
  Tot(58)        7        5     2038    140.1    605.7   1390.5   481.00      0.0    139.6      0.5      0.0      0.0    131.7       49    229.5    181.4       75     0.000     0.000     0.000     0.000      101        0       42       25        9       15       20    11.157       45     37.1    4.139   -9.900     1.15    0.000    0.000       27        8     2038  Maize_short_Chisinau_7May_NonOptimum_85_NCC.PRM
  Tot(59)        7        5     2039    100.5    603.6   1334.3   485.00      0.0    100.4      0.1      0.0      0.0     92.8       33    226.6    177.4       78     0.000     0.000     0.000     0.000      103        0       42       25       10       12       19    11.100       46     39.3    4.362   -9.900     1.37    0.000    0.000       27        8     2039  Maize_short_Chisinau_7May_NonOptimum_85_NCC.PRM
  Tot(60)        7        5     2040    182.5    580.5   1290.6   489.00      0.0    166.8     15.7     35.1      0.0    116.6       48    233.8    182.7       77     0.000     0.000     0.000     0.000      101        0       42       25       11       13       20    11.406       46     37.4    4.269   -9.900     1.23    0.000    0.000       27        8     2040  Maize_short_Chisinau_7May_NonOptimum_85_NCC.PRM
  Tot(61)        7        5     2041    234.8    505.3   1267.5   494.00      0.0    220.3     14.5     19.9      0.0    133.0       72    281.2    216.2       89     0.000     0.000     0.000     0.000      107        0       42       25       10        0        8    16.174       67     39.8    6.432   -9.900     1.55    0.000    0.000       27        8     2041  Maize_short_Chisinau_7May_NonOptimum_85_NCC.PRM
  Tot(62)        7        5     2042     20.0    688.3   1518.5   499.00      0.0     20.0      0.0      0.0      0.0     53.8       12    165.9    135.1       75     0.000     0.000     0.000     0.000       89        0       42       25        9       34       19     7.158       29     26.0    1.859   -9.900     0.85    0.000    0.000       27        8     2042  Maize_short_Chisinau_7May_NonOptimum_85_NCC.PRM
  Tot(63)        7        5     2043    119.2    546.7   1354.0   504.00      0.0    117.0      2.2      2.0      0.0     89.6       40    248.1    193.3       80     0.000     0.000     0.000     0.000      107        0       42       25        6        9       15    13.737       57     39.8    5.465   -9.900     1.62    0.000    0.000       27        8     2043  Maize_short_Chisinau_7May_NonOptimum_85_NCC.PRM
  Tot(64)        7        5     2044    159.8    547.6   1271.6   508.00      0.0    158.2      1.6      0.0      0.0     97.1       48    279.8    216.9       84     0.000     0.000     0.000     0.000      107        0       42       25        8        4       14    14.480       59     39.5    5.718   -9.900     1.52    0.000    0.000       27        8     2044  Maize_short_Chisinau_7May_NonOptimum_85_NCC.PRM
  Tot(65)        7        5     2045    154.9    544.1   1210.4   513.00      0.0    143.9     11.0     29.0      0.0    107.5       52    227.9    178.0       76     0.000     0.000     0.000     0.000      102        0       42       25       20        8       20    11.349       47     37.9    4.302   -9.900     1.29    0.000    0.000       27        8     2045  Maize_short_Chisinau_7May_NonOptimum_85_NCC.PRM
  Tot(66)        7        5     2046    217.2    570.1   1363.6   519.00      0.0    189.3     27.9     49.5      0.0    122.0       53    240.0    187.1       78     0.000     0.000     0.000     0.000      104        0       42       25       13        8       19    12.224       49     39.1    4.781   -9.900     1.32    0.000    0.000       27        8     2046  Maize_short_Chisinau_7May_NonOptimum_85_NCC.PRM
  Tot(67)        7        5     2047    100.6    525.5   1269.4   524.00      0.0    100.4      0.2      1.3      0.0    105.1       48    215.8    168.4       78     0.000     0.000     0.000     0.000      107        0       42       25       10        7       19    12.246       51     39.2    4.802   -9.900     1.50    0.000    0.000       27        8     2047  Maize_short_Chisinau_7May_NonOptimum_85_NCC.PRM
  Tot(68)        7        5     2048    191.1    577.4   1355.4   529.00      0.0    169.9     21.2     39.7      0.0    108.3       48    247.0    191.3       77     0.000     0.000     0.000     0.000      107        0       42       25       10        5       18    12.550       53     38.9    4.887   -9.900     1.38    0.000    0.000       27        8     2048  Maize_short_Chisinau_7May_NonOptimum_85_NCC.PRM
  Tot(69)        7        5     2049    106.6    521.7   1234.6   535.00      0.0    106.5      0.1      0.0      0.0    100.9       46    222.4    173.9       80     0.000     0.000     0.000     0.000      107        0       42       25       11       11       17    12.661       52     39.8    5.043   -9.900     1.56    0.000    0.000       27        8     2049  Maize_short_Chisinau_7May_NonOptimum_85_NCC.PRM
  Tot(70)        7        5     2050    148.3    504.0   1207.2   541.00      0.0    147.4      0.9      2.1      0.0    125.1       65    239.8    186.3       83     0.000     0.000     0.000     0.000      107        0       42       25       17        9       15    13.600       56     39.9    5.420   -9.900     1.49    0.000    0.000       27        8     2050  Maize_short_Chisinau_7May_NonOptimum_85_NCC.PRM
  Tot(71)        7        5     2051    295.2    429.9   1116.1   546.00      0.0    279.1     16.1     10.1      0.0    124.2       74    250.0    191.7      100     0.000     0.000     0.000     0.000      107        0       42       25       12        2        0    17.545       75     40.0    7.022   -9.900     1.88    0.000    0.000       27        8     2051  Maize_short_Chisinau_7May_NonOptimum_85_NCC.PRM
  Tot(72)        7        5     2052    200.7    590.1   1391.3   552.00      0.0    171.1     29.6     41.8      0.0    117.3       48    234.0    186.0       74     0.000     0.000     0.000     0.000      106        0       42       25        6       13       22    11.700       47     38.9    4.551   -9.900     1.30    0.000    0.000       27        8     2052  Maize_short_Chisinau_7May_NonOptimum_85_NCC.PRM
  Tot(73)        7        5     2053    177.5    499.9   1279.0   558.00      0.0    175.0      2.5      7.9      0.0    121.9       76    266.5    205.4       82     0.000     0.000     0.000     0.000      107        0       42       25       13        2       13    14.727       60     39.6    5.825   -9.900     1.50    0.000    0.000       27        8     2053  Maize_short_Chisinau_7May_NonOptimum_85_NCC.PRM
  Tot(74)        7        5     2054    256.8    539.2   1328.3   564.00      0.0    207.5     49.3     47.9      0.0    127.4       63    247.7    192.5       80     0.000     0.000     0.000     0.000      107        0       42       25        9        4       16    13.609       55     39.2    5.335   -9.900     1.42    0.000    0.000       27        8     2054  Maize_short_Chisinau_7May_NonOptimum_85_NCC.PRM
  Tot(75)        7        5     2055    225.2    544.0   1279.4   571.00      0.0    220.0      5.2     11.0      0.0    133.9       67    290.7    225.3       88     0.000     0.000     0.000     0.000      107        0       42       25        7        1        9    16.015       66     39.7    6.360   -9.900     1.50    0.000    0.000       27        8     2055  Maize_short_Chisinau_7May_NonOptimum_85_NCC.PRM
  Tot(76)        7        5     2056     94.4    691.8   1593.6   577.00      0.0     92.8      1.6      5.2      0.0     92.4       26    210.0    166.3       73     0.000     0.000     0.000     0.000       94        0       42       25        3       20       21     9.377       37     30.4    2.853   -9.900     0.95    0.000    0.000       27        8     2056  Maize_short_Chisinau_7May_NonOptimum_85_NCC.PRM
  Tot(77)        7        5     2057    147.6    548.1   1300.4   583.00      0.0    146.2      1.4      0.8      0.0     99.1       49    267.8    207.6       82     0.000     0.000     0.000     0.000      107        0       42       25       14        6       14    14.385       59     39.5    5.684   -9.900     1.55    0.000    0.000       27        8     2057  Maize_short_Chisinau_7May_NonOptimum_85_NCC.PRM
  Tot(78)        7        5     2058     87.9    582.7   1307.2   590.00      0.0     85.0      2.9      9.2      0.0     88.9       36    208.6    163.1       72     0.000     0.000     0.000     0.000      102        0       42       25       13       10       21    10.877       45     37.7    4.100   -9.900     1.38    0.000    0.000       27        8     2058  Maize_short_Chisinau_7May_NonOptimum_85_NCC.PRM
  Tot(79)        7        5     2059    127.7    630.0   1451.1   597.00      0.0    120.1      7.6     23.2      0.0    107.0       34    205.0    162.3       74     0.000     0.000     0.000     0.000       96        0       42       25        8       22       20     9.806       39     32.7    3.203   -9.900     1.03    0.000    0.000       27        8     2059  Maize_short_Chisinau_7May_NonOptimum_85_NCC.PRM
  Tot(80)        7        5     2060    202.1    456.6   1103.8   604.00      0.0    195.8      6.3      0.0      0.0    100.0       53    249.6    190.7      100     0.000     0.000     0.000     0.000      107        0       42       25       16        1        0    17.188       75     40.0    6.878   -9.900     1.97    0.000    0.000       27        8     2060  Maize_short_Chisinau_7May_NonOptimum_85_NCC.PRM
  Tot(81)        7        5     2061    164.2    531.7   1261.4   611.00      0.0    153.5     10.7     26.3      0.0    112.2       63    242.2    190.0       75     0.000     0.000     0.000     0.000      107        0       42       25       11        7       18    13.219       55     39.2    5.181   -9.900     1.46    0.000    0.000       27        8     2061  Maize_short_Chisinau_7May_NonOptimum_85_NCC.PRM
  Tot(82)        7        5     2062    114.8    628.5   1468.5   618.00      0.0    110.8      4.0      5.9      0.0     98.8       35    227.7    178.2       76     0.000     0.000     0.000     0.000      102        0       42       25        6       12       21    11.352       46     37.8    4.295   -9.900     1.32    0.000    0.000       27        8     2062  Maize_short_Chisinau_7May_NonOptimum_85_NCC.PRM
  Tot(83)        7        5     2063    106.2    638.2   1464.6   625.00      0.0    105.5      0.7      0.5      0.0    119.1       37    201.6    158.8       76     0.000     0.000     0.000     0.000       97        0       42       25        5       19       20    10.131       40     33.6    3.405   -9.900     1.07    0.000    0.000       27        8     2063  Maize_short_Chisinau_7May_NonOptimum_85_NCC.PRM
  Tot(84)        7        5     2064    118.8    592.2   1393.8   632.00      0.0    114.0      4.8      8.5      0.0     93.5       39    235.1    182.9       76     0.000     0.000     0.000     0.000      106        0       42       25        9        7       20    12.081       50     38.8    4.683   -9.900     1.43    0.000    0.000       27        8     2064  Maize_short_Chisinau_7May_NonOptimum_85_NCC.PRM
  Tot(85)        7        5     2065    254.1    570.7   1431.2   639.00      0.0    229.2     24.9     33.6      0.0    136.1       70    283.4    219.0       81     0.000     0.000     0.000     0.000      107        0       42       25        7        2       14    14.890       60     39.1    5.829   -9.900     1.39    0.000    0.000       27        8     2065  Maize_short_Chisinau_7May_NonOptimum_85_NCC.PRM
  Tot(86)        7        5     2066     60.4    672.3   1510.2   647.00      0.0     60.4      0.0      0.0      0.0     80.2       20    175.8    141.6       75     0.000     0.000     0.000     0.000       93        0       42       25        5       30       19     8.418       34     30.0    2.521   -9.900     1.01    0.000    0.000       27        8     2066  Maize_short_Chisinau_7May_NonOptimum_85_NCC.PRM
  Tot(87)        7        5     2067     89.6    669.8   1476.9   654.00      0.0     89.6      0.0      0.0      0.0     96.7       27    204.5    162.1       75     0.000     0.000     0.000     0.000       95        0       42       25        8       24       19     9.568       38     32.1    3.068   -9.900     1.03    0.000    0.000       27        8     2067  Maize_short_Chisinau_7May_NonOptimum_85_NCC.PRM
  Tot(88)        7        5     2068    149.4    573.7   1392.0   662.00      0.0    146.9      2.5      9.3      0.0    133.4       56    223.5    174.3       78     0.000     0.000     0.000     0.000      103        0       42       25        7        9       19    11.824       48     39.2    4.638   -9.900     1.30    0.000    0.000       27        8     2068  Maize_short_Chisinau_7May_NonOptimum_85_NCC.PRM
  Tot(89)        7        5     2069    169.9    516.5   1342.3   669.00      0.0    165.8      4.1     11.9      0.0    131.4       68    244.2    189.2       82     0.000     0.000     0.000     0.000      107        0       42       25        6        6       14    14.416       59     39.6    5.715   -9.900     1.52    0.000    0.000       27        8     2069  Maize_short_Chisinau_7May_NonOptimum_85_NCC.PRM
  Tot(90)        7        5     2070     92.9    574.8   1365.2   677.00      0.0     92.0      0.9      4.8      0.0     84.4       36    225.1    176.0       76     0.000     0.000     0.000     0.000      105        0       42       25       12       11       21    11.993       48     39.2    4.703   -9.900     1.52    0.000    0.000       27        8     2070  Maize_short_Chisinau_7May_NonOptimum_85_NCC.PRM
  Tot(91)        7        5     2071    198.0    566.8   1468.1   685.00      0.0    186.7     11.3     13.0      0.0    110.7       50    269.5    209.5       83     0.000     0.000     0.000     0.000      107        0       42       25        5        7       11    14.823       60     40.0    5.928   -9.900     1.56    0.000    0.000       27        8     2071  Maize_short_Chisinau_7May_NonOptimum_85_NCC.PRM
  Tot(92)        7        5     2072    242.5    522.5   1442.7   693.00      0.0    220.3     22.2     26.6      0.0    108.5       55    292.7    226.1       94     0.000     0.000     0.000     0.000      107        0       42       25        3        3        5    17.205       70     40.1    6.892   -9.900     1.72    0.000    0.000       27        8     2072  Maize_short_Chisinau_7May_NonOptimum_85_NCC.PRM
  Tot(93)        7        5     2073    164.9    595.2   1431.0   701.00      0.0    159.3      5.6      5.5      0.0    140.5       58    233.2    182.6       77     0.000     0.000     0.000     0.000      103        0       42       25        6        6       20    11.759       48     38.9    4.579   -9.900     1.24    0.000    0.000       27        8     2073  Maize_short_Chisinau_7May_NonOptimum_85_NCC.PRM
  Tot(94)        7        5     2074    156.7    659.8   1649.3   709.00      0.0    154.6      2.1     12.1      0.0    133.2       41    219.1    173.4       76     0.000     0.000     0.000     0.000       96        0       42       25        4       23       20     9.679       39     32.8    3.173   -9.900     0.91    0.000    0.000       27        8     2074  Maize_short_Chisinau_7May_NonOptimum_85_NCC.PRM
  Tot(95)        7        5     2075     97.4    600.8   1376.5   717.00      0.0     95.1      2.3      6.9      0.0     88.7       32    209.9    165.5       77     0.000     0.000     0.000     0.000       98        0       42       25       11       22       19    10.206       41     35.1    3.579   -9.900     1.21    0.000    0.000       27        8     2075  Maize_short_Chisinau_7May_NonOptimum_85_NCC.PRM
  Tot(96)        7        5     2076    226.5    544.0   1355.0   725.00      0.0    213.1     13.4     30.1      0.0    123.5       65    280.1    216.0       85     0.000     0.000     0.000     0.000      107        0       42       25        9        1       11    15.835       64     39.6    6.276   -9.900     1.55    0.000    0.000       27        8     2076  Maize_short_Chisinau_7May_NonOptimum_85_NCC.PRM
  Tot(97)        7        5     2077     56.2    654.7   1513.2   733.00      0.0     56.2      0.0      0.0      0.0     82.3       24    190.1    150.9       73     0.000     0.000     0.000     0.000       96        0       42       25        3       20       20     9.671       39     32.7    3.158   -9.900     1.17    0.000    0.000       27        8     2077  Maize_short_Chisinau_7May_NonOptimum_85_NCC.PRM
  Tot(98)        7        5     2078     69.3    649.9   1502.3   742.00      0.0     59.0     10.3     21.8      0.0     66.6       19    175.1    139.2       74     0.000     0.000     0.000     0.000       91        0       42       25        9       27       20     8.395       34     27.9    2.340   -9.900     0.97    0.000    0.000       27        8     2078  Maize_short_Chisinau_7May_NonOptimum_85_NCC.PRM
  Tot(99)        7        5     2079    180.4    525.8   1415.6   750.00      0.0    175.0      5.4     16.2      0.0    122.4       67    254.5    197.0       81     0.000     0.000     0.000     0.000      107        0       42       25        7       10       14    14.230       58     40.2    5.725   -9.900     1.52    0.000    0.000       27        8     2079  Maize_short_Chisinau_7May_NonOptimum_85_NCC.PRM
 Tot(100)        7        5     2080    160.5    524.5   1260.1   758.00      0.0    154.2      6.3     16.9      0.0    128.3       65    226.8    177.5       80     0.000     0.000     0.000     0.000      106        0       42       25       15       10       19    12.205       50     39.5    4.822   -9.900     1.36    0.000    0.000       27        8     2080  Maize_short_Chisinau_7May_NonOptimum_85_NCC.PRM
 Tot(101)        7        5     2081     76.4    619.7   1479.5   767.00      0.0     76.3      0.1      0.0      0.0     93.4       32    200.0    156.8       73     0.000     0.000     0.000     0.000       98        0       42       25        5       15       20    10.244       42     34.5    3.536   -9.900     1.21    0.000    0.000       27        8     2081  Maize_short_Chisinau_7May_NonOptimum_85_NCC.PRM
 Tot(102)        7        5     2082    271.0    487.2   1400.2   775.00      0.0    256.2     14.8     29.5      0.0    136.1       75    280.3    215.1       98     0.000     0.000     0.000     0.000      107        0       42       25        7        3        1    17.849       74     40.2    7.180   -9.900     1.72    0.000    0.000       27        8     2082  Maize_short_Chisinau_7May_NonOptimum_85_NCC.PRM
 Tot(103)        7        5     2083    146.8    598.9   1561.5   784.00      0.0    146.6      0.2      0.0      0.0    118.0       47    244.7    192.2       80     0.000     0.000     0.000     0.000      107        0       42       25        2        7       17    13.065       53     39.4    5.143   -9.900     1.42    0.000    0.000       27        8     2083  Maize_short_Chisinau_7May_NonOptimum_85_NCC.PRM
 Tot(104)        7        5     2084    114.7    505.5   1341.7   792.00      0.0    113.3      1.4      1.5      0.0     87.9       45    243.0    188.6       85     0.000     0.000     0.000     0.000      107        0       42       25        9       13       10    15.366       64     40.3    6.190   -9.900     1.87    0.000    0.000       27        8     2084  Maize_short_Chisinau_7May_NonOptimum_85_NCC.PRM
 Tot(105)        7        5     2085     99.7    736.2   1744.8   801.00      0.0     99.0      0.7      0.4      0.0    108.0       23    163.0    132.5       75     0.000     0.000     0.000     0.000       88        0       42       25        3       34       19     6.960       28     25.1    1.745   -9.900     0.68    0.000    0.000       27        8     2085  Maize_short_Chisinau_7May_NonOptimum_85_NCC.PRM
 Tot(106)        7        5     2086    110.0    588.4   1480.3   810.00      0.0    110.0      0.0      0.0      0.0     91.6       35    239.2    187.5       80     0.000     0.000     0.000     0.000      107        0       42       25        2       18       14    13.671       56     40.0    5.465   -9.900     1.65    0.000    0.000       27        8     2086  Maize_short_Chisinau_7May_NonOptimum_85_NCC.PRM
 Tot(107)        7        5     2087    196.9    533.6   1385.2   818.00      0.0    192.1      4.8     10.4      0.0    125.8       72    274.2    211.3       86     0.000     0.000     0.000     0.000      107        0       42       25       10        1        9    15.671       66     39.7    6.229   -9.900     1.56    0.000    0.000       27        8     2087  Maize_short_Chisinau_7May_NonOptimum_85_NCC.PRM
 Tot(108)        7        5     2088    227.7    661.6   1670.8   827.00      0.0    190.3     37.4     65.0      0.0    120.9       41    222.8    176.6       71     0.000     0.000     0.000     0.000      107        0       42       25        4       23       23    10.679       44     39.7    4.238   -9.900     1.23    0.000    0.000       27        8     2088  Maize_short_Chisinau_7May_NonOptimum_85_NCC.PRM
 Tot(109)        7        5     2089     83.1    642.8   1477.7   836.00      0.0     82.9      0.2      3.9      0.0    101.1       30    182.8    145.5       75     0.000     0.000     0.000     0.000       92        0       42       25       10       26       20     8.484       35     28.9    2.452   -9.900     0.87    0.000    0.000       27        8     2089  Maize_short_Chisinau_7May_NonOptimum_85_NCC.PRM
 Tot(110)        7        5     2090    144.8    627.4   1530.7   845.00      0.0    137.7      7.1     19.6      0.0    122.5       41    209.7    164.8       77     0.000     0.000     0.000     0.000       98        0       42       25        8       16       19    10.464       43     34.8    3.646   -9.900     1.11    0.000    0.000       27        8     2090  Maize_short_Chisinau_7May_NonOptimum_85_NCC.PRM
 Tot(111)        7        5     2091    224.7    555.9   1429.2   854.00      0.0    209.4     15.3     31.1      0.0    125.8       68    274.0    211.8       83     0.000     0.000     0.000     0.000      107        0       42       25        7        3       12    14.854       62     39.4    5.857   -9.900     1.47    0.000    0.000       27        8     2091  Maize_short_Chisinau_7May_NonOptimum_85_NCC.PRM
 Tot(112)        7        5     2092    150.0    632.0   1571.9   863.00      0.0    141.6      8.4     16.6      0.0    117.1       45    227.7    178.5       76     0.000     0.000     0.000     0.000      103        0       42       25        4        9       20    11.435       47     38.9    4.444   -9.900     1.29    0.000    0.000       27        8     2092  Maize_short_Chisinau_7May_NonOptimum_85_NCC.PRM
 Tot(113)        7        5     2093    197.7    629.5   1656.6   872.00      0.0    192.4      5.3     12.6      0.0    136.3       62    267.8    207.6       78     0.000     0.000     0.000     0.000      107        0       42       25        2        2       18    13.427       55     38.7    5.203   -9.900     1.29    0.000    0.000       27        8     2093  Maize_short_Chisinau_7May_NonOptimum_85_NCC.PRM
 Tot(114)        7        5     2094    130.2    599.5   1548.3   881.00      0.0    122.9      7.3     23.5      0.0     98.8       38    215.2    168.9       78     0.000     0.000     0.000     0.000      101        0       42       25        5       15       19    10.873       45     37.6    4.090   -9.900     1.33    0.000    0.000       27        8     2094  Maize_short_Chisinau_7May_NonOptimum_85_NCC.PRM
 Tot(115)        7        5     2095    223.9    579.2   1533.7   890.00      0.0    209.7     14.2     34.1      0.0    123.9       61    273.2    210.7       83     0.000     0.000     0.000     0.000      107        0       42       25        4        2       12    14.914       62     39.5    5.894   -9.900     1.48    0.000    0.000       27        8     2095  Maize_short_Chisinau_7May_NonOptimum_85_NCC.PRM
 Tot(116)        7        5     2096    123.8    682.1   1687.8   899.00      0.0    123.3      0.5      3.6      0.0    115.1       37    223.6    176.0       75     0.000     0.000     0.000     0.000      102        0       42       25        1       12       20    10.882       45     38.0    4.132   -9.900     1.22    0.000    0.000       27        8     2096  Maize_short_Chisinau_7May_NonOptimum_85_NCC.PRM
 Tot(117)        7        5     2097    152.1    664.0   1599.7   908.00      0.0    149.3      2.8      6.5      0.0    125.8       42    235.4    184.7       77     0.000     0.000     0.000     0.000      106        0       42       25        4       16       22    11.189       47     39.4    4.409   -9.900     1.22    0.000    0.000       27        8     2097  Maize_short_Chisinau_7May_NonOptimum_85_NCC.PRM
 Tot(118)        7        5     2098    121.4    595.0   1536.8   917.00      0.0    111.2     10.2     12.7      0.0    103.2       42    213.4    166.7       76     0.000     0.000     0.000     0.000      103        0       42       25        7       14       19    11.242       47     39.5    4.437   -9.900     1.40    0.000    0.000       27        8     2098  Maize_short_Chisinau_7May_NonOptimum_85_NCC.PRM
 Tot(119)        7        5     2099    163.9    552.2   1435.3   927.00      0.0    152.5     11.4      6.2      0.0     75.2       37    281.5    216.9       90     0.000     0.000     0.000     0.000      107        0       42       25        8        2        6    16.223       68     39.9    6.468   -9.900     1.81    0.000    0.000       27        8     2099  Maize_short_Chisinau_7May_NonOptimum_85_NCC.PRM
