AquaCrop 7.0 (August 2022) - Output created on (date) : 23-11-2022   at (time) : 13:09:30

    RunNr     Day1   Month1    Year1     Rain      ETo       GD     CO2      Irri   Infilt   Runoff    Drain   Upflow        E     E/Ex       Tr      TrW   Tr/Trx    SaltIn   SaltOut    SaltUp  SaltProf     Cycle   SaltStr  FertStr  WeedStr  TempStr   ExpStr   StoStr  BioMass  Brelative   HI    Y(dry)  Y(fresh)    WPet      Bin     Bout     DayN   MonthN    YearN
                                           mm       mm  degC.day    ppm        mm       mm       mm       mm       mm       mm        %       mm       mm        %    ton/ha    ton/ha    ton/ha    ton/ha      days       %        %        %        %        %        %    ton/ha        %       %    ton/ha   ton/ha    kg/m3   ton/ha   ton/ha
   Tot(1)        6        6     1981    179.0    479.2   1259.0   340.11      0.0    174.7      4.3      0.0      0.0    132.9       57    220.5    219.1       90     0.000     0.000     0.000     0.000      107        0        0        0       13       17        7    16.102       81     40.7    6.560   -9.900     1.86    0.000    0.000       26        9     1981  Maize_short_Cahul_6June_Optimum_85_MPI.PRM
   Tot(2)        6        6     1982    226.5    453.3   1300.2   341.22      0.0    224.6      1.9      0.0      0.0    156.5       76    260.5    260.9       99     0.000     0.000     0.000     0.000      107        0        0        0        6        2        1    21.545       96     40.1    8.646   -9.900     2.07    0.000    0.000       26        9     1982  Maize_short_Cahul_6June_Optimum_85_MPI.PRM
   Tot(3)        6        6     1983    282.8    466.4   1248.7   342.84      0.0    248.9     33.9     46.7      0.0    132.2       64    257.0    257.3       99     0.000     0.000     0.000     0.000      107        0        0        0        9        4        1    20.228       95     40.0    8.092   -9.900     2.08    0.000    0.000       26        9     1983  Maize_short_Cahul_6June_Optimum_85_MPI.PRM
   Tot(4)        6        6     1984    143.5    453.8   1166.3   344.40      0.0    140.3      3.2      4.9      0.0    123.3       58    220.8    220.0       91     0.000     0.000     0.000     0.000      107        0        0        0       11        9        9    17.880       83     40.2    7.193   -9.900     2.09    0.000    0.000       26        9     1984  Maize_short_Cahul_6June_Optimum_85_MPI.PRM
   Tot(5)        6        6     1985    324.4    461.9   1179.1   345.87      0.0    287.6     36.8     49.1      0.0    135.8       70    258.6    259.2       99     0.000     0.000     0.000     0.000      107        0        0        0       16        4        0    19.185       96     40.2    7.717   -9.900     1.96    0.000    0.000       26        9     1985  Maize_short_Cahul_6June_Optimum_85_MPI.PRM
   Tot(6)        6        6     1986    149.3    523.6   1330.5   347.19      0.0    143.2      6.1      7.2      0.0    118.6       48    231.7    232.3       83     0.000     0.000     0.000     0.000      107        0        0        0        8       15       14    15.738       73     40.4    6.352   -9.900     1.81    0.000    0.000       26        9     1986  Maize_short_Cahul_6June_Optimum_85_MPI.PRM
   Tot(7)        6        6     1987    210.0    499.3   1282.2   348.98      0.0    199.7     10.3      5.6      0.0    126.8       54    262.1    260.7       98     0.000     0.000     0.000     0.000      107        0        0        0        9        6        2    19.599       94     40.3    7.891   -9.900     2.03    0.000    0.000       26        9     1987  Maize_short_Cahul_6June_Optimum_85_MPI.PRM
   Tot(8)        6        6     1988    164.3    492.5   1317.1   351.45      0.0    154.4      9.9      0.0      0.0    107.7       41    206.4    207.0       87     0.000     0.000     0.000     0.000      107        0        0        0        9       24        8    14.613       69     40.7    5.955   -9.900     1.90    0.000    0.000       26        9     1988  Maize_short_Cahul_6June_Optimum_85_MPI.PRM
   Tot(9)        6        6     1989    263.2    446.7   1239.6   352.89      0.0    252.6     10.6      6.9      0.0    133.6       65    242.4    241.5      100     0.000     0.000     0.000     0.000      107        0        0        0       11        3        0    19.953       97     40.1    8.005   -9.900     2.13    0.000    0.000       26        9     1989  Maize_short_Cahul_6June_Optimum_85_MPI.PRM
  Tot(10)        6        6     1990    126.8    508.1   1226.1   354.16      0.0    126.2      0.6      0.0      0.0    119.2       45    208.6    210.1       87     0.000     0.000     0.000     0.000      107        0        0        0       13       18       13    14.494       73     40.4    5.863   -9.900     1.79    0.000    0.000       26        9     1990  Maize_short_Cahul_6June_Optimum_85_MPI.PRM
  Tot(11)        6        6     1991    222.0    443.1   1313.0   355.48      0.0    209.4     12.6     21.9      0.0    124.4       61    240.4    239.0      100     0.000     0.000     0.000     0.000      107        0        0        0        8        3        0    20.349       97     40.2    8.172   -9.900     2.24    0.000    0.000       26        9     1991  Maize_short_Cahul_6June_Optimum_85_MPI.PRM
  Tot(12)        6        6     1992    139.3    517.8   1313.1   356.27      0.0    135.9      3.4      6.6      0.0    123.4       48    211.3    213.1       82     0.000     0.000     0.000     0.000      107        0        0        0       10       22       15    13.783       66     40.5    5.588   -9.900     1.67    0.000    0.000       26        9     1992  Maize_short_Cahul_6June_Optimum_85_MPI.PRM
  Tot(13)        6        6     1993    141.0    501.0   1168.2   356.95      0.0    140.8      0.2      0.0      0.0    104.1       42    227.4    226.3       93     0.000     0.000     0.000     0.000      107        0        0        0       16       16        5    16.569       84     40.7    6.735   -9.900     2.03    0.000    0.000       26        9     1993  Maize_short_Cahul_6June_Optimum_85_MPI.PRM
  Tot(14)        6        6     1994    201.5    505.3   1432.3   358.63      0.0    160.3     41.2     32.0      0.0     90.1       36    252.3    252.7       90     0.000     0.000     0.000     0.000      107        0        0        0        3       18        8    18.486       80     40.7    7.518   -9.900     2.20    0.000    0.000       26        9     1994  Maize_short_Cahul_6June_Optimum_85_MPI.PRM
  Tot(15)        6        6     1995    191.4    495.2   1340.3   360.62      0.0    188.1      3.3      0.0      0.0    121.7       48    237.3    237.7       95     0.000     0.000     0.000     0.000      107        0        0        0        9       16        3    18.156       87     40.7    7.387   -9.900     2.06    0.000    0.000       26        9     1995  Maize_short_Cahul_6June_Optimum_85_MPI.PRM
  Tot(16)        6        6     1996    216.5    496.5   1218.6   362.37      0.0    188.4     28.1      0.0      0.0     84.8       28    192.8    192.6       97     0.000     0.000     0.000     0.000      107        0        0        0       17       27        1    14.902       79     40.9    6.096   -9.900     2.20    0.000    0.000       26        9     1996  Maize_short_Cahul_6June_Optimum_85_MPI.PRM
  Tot(17)        6        6     1997    374.7    437.8   1219.0   363.47      0.0    331.6     43.1     21.0      0.0    154.2       73    216.0    216.5      100     0.000     0.000     0.000     0.000      107        0        0        0       13        1        0    19.216       97     40.0    7.687   -9.900     2.08    0.000    0.000       26        9     1997  Maize_short_Cahul_6June_Optimum_85_MPI.PRM
  Tot(18)        6        6     1998    210.6    490.9   1290.8   366.50      0.0    202.8      7.8      2.7      0.0    137.5       57    216.7    215.7       88     0.000     0.000     0.000     0.000      107        0        0        0       11       22        7    15.320       74     40.7    6.242   -9.900     1.76    0.000    0.000       26        9     1998  Maize_short_Cahul_6June_Optimum_85_MPI.PRM
  Tot(19)        6        6     1999    276.9    515.7   1442.8   368.14      0.0    264.5     12.4     18.9      0.0    146.3       54    262.2    260.6      100     0.000     0.000     0.000     0.000      107        0        0        0        5       12        0    20.568       92     40.4    8.314   -9.900     2.04    0.000    0.000       26        9     1999  Maize_short_Cahul_6June_Optimum_85_MPI.PRM
  Tot(20)        6        6     2000    158.9    542.0   1294.7   369.41      0.0    148.1     10.8      0.0      0.0     98.1       31    203.4    206.0       85     0.000     0.000     0.000     0.000      107        0        0        0       12       25        8    13.776       66     40.7    5.610   -9.900     1.86    0.000    0.000       26        9     2000  Maize_short_Cahul_6June_Optimum_85_MPI.PRM
  Tot(21)        6        6     2001    221.7    527.9   1398.2   371.07      0.0    201.1     20.6      0.3      0.0    135.1       46    194.9    195.0       82     0.000     0.000     0.000     0.000      107        0        0        0        6       27       12    12.690       57     40.6    5.151   -9.900     1.56    0.000    0.000       26        9     2001  Maize_short_Cahul_6June_Optimum_85_MPI.PRM
  Tot(22)        6        6     2002    281.0    528.2   1422.2   373.16      0.0    245.2     35.8     12.8      0.0    108.3       38    260.4    259.6      100     0.000     0.000     0.000     0.000      107        0        0        0        6        5        0    20.424       92     40.0    8.170   -9.900     2.22    0.000    0.000       26        9     2002  Maize_short_Cahul_6June_Optimum_85_MPI.PRM
  Tot(23)        6        6     2003    140.3    548.0   1349.4   375.80      0.0    134.9      5.4      0.0      0.0    100.9       34    221.2    221.7       86     0.000     0.000     0.000     0.000      107        0        0        0        9       17       10    15.517       73     40.4    6.273   -9.900     1.95    0.000    0.000       26        9     2003  Maize_short_Cahul_6June_Optimum_85_MPI.PRM
  Tot(24)        6        6     2004    228.7    508.4   1288.8   377.49      0.0    221.5      7.2      3.7      0.0    113.5       45    258.8    258.0      100     0.000     0.000     0.000     0.000      107        0        0        0        9        6        0    20.096       94     40.2    8.071   -9.900     2.17    0.000    0.000       26        9     2004  Maize_short_Cahul_6June_Optimum_85_MPI.PRM
  Tot(25)        6        6     2005    352.7    506.6   1346.7   379.80      0.0    327.3     25.4     34.4      0.0    134.4       59    291.2    289.5      100     0.000     0.000     0.000     0.000      107        0        0        0        5        2        0    21.779       96     40.0    8.720   -9.900     2.05    0.000    0.000       26        9     2005  Maize_short_Cahul_6June_Optimum_85_MPI.PRM
  Tot(26)        6        6     2006    156.6    550.8   1344.7   381.90      0.0    154.3      2.3      0.0      0.0    113.1       36    238.3    239.7       93     0.000     0.000     0.000     0.000      107        0        0        0        6       24        5    16.857       75     40.6    6.849   -9.900     1.95    0.000    0.000       26        9     2006  Maize_short_Cahul_6June_Optimum_85_MPI.PRM
  Tot(27)        6        6     2007    159.1    626.4   1410.5   383.77      0.0    157.4      1.7      0.0      0.0    124.0       31    229.3    229.4       92     0.000     0.000     0.000     0.000      107        0        0        0        8       25        6    14.814       69     40.2    5.960   -9.900     1.69    0.000    0.000       26        9     2007  Maize_short_Cahul_6June_Optimum_85_MPI.PRM
  Tot(28)        6        6     2008    197.7    569.5   1367.7   385.59      0.0    188.2      9.5      0.0      0.0    129.2       43    217.9    218.9       80     0.000     0.000     0.000     0.000      107        0        0        0       12       19       12    13.692       67     40.3    5.520   -9.900     1.59    0.000    0.000       26        9     2008  Maize_short_Cahul_6June_Optimum_85_MPI.PRM
  Tot(29)        6        6     2009    176.3    588.9   1438.2   387.37      0.0    169.3      7.0      0.0      0.0    132.6       41    237.0    236.4       86     0.000     0.000     0.000     0.000      107        0        0        0        4       23       12    15.251       66     40.6    6.188   -9.900     1.67    0.000    0.000       26        9     2009  Maize_short_Cahul_6June_Optimum_85_MPI.PRM
  Tot(30)        6        6     2010    247.1    521.6   1434.9   389.85      0.0    228.6     18.5     34.5      0.0    144.4       58    242.2    241.9       87     0.000     0.000     0.000     0.000      107        0        0        0        7       15        9    17.023       76     40.6    6.909   -9.900     1.79    0.000    0.000       26        9     2010  Maize_short_Cahul_6June_Optimum_85_MPI.PRM
  Tot(31)        6        6     2011    144.1    558.1   1426.3   391.63      0.0    132.7     11.4     12.7      0.0    119.0       40    215.7    216.9       81     0.000     0.000     0.000     0.000      104        0        0        0        3       20       18    13.821       58     40.0    5.525   -9.900     1.65    0.000    0.000       26        9     2011  Maize_short_Cahul_6June_Optimum_85_MPI.PRM
  Tot(32)        6        6     2012    172.7    628.8   1504.7   393.82      0.0    166.6      6.1      6.3      0.0    136.7       36    225.7    224.3       82     0.000     0.000     0.000     0.000      107        0        0        0        3       30       14    13.332       57     40.3    5.372   -9.900     1.48    0.000    0.000       26        9     2012  Maize_short_Cahul_6June_Optimum_85_MPI.PRM
  Tot(33)        6        6     2013    278.4    535.9   1388.7   396.48      0.0    252.5     25.9     25.8      0.0    138.7       51    237.0    237.2       89     0.000     0.000     0.000     0.000      107        0        0        0        8       19        6    16.949       78     40.7    6.904   -9.900     1.84    0.000    0.000       26        9     2013  Maize_short_Cahul_6June_Optimum_85_MPI.PRM
  Tot(34)        6        6     2014    153.0    567.9   1422.4   398.55      0.0    152.8      0.2      0.0      0.0    140.1       49    227.5    228.7       79     0.000     0.000     0.000     0.000      107        0        0        0        6       23       20    14.324       63     39.8    5.704   -9.900     1.55    0.000    0.000       26        9     2014  Maize_short_Cahul_6June_Optimum_85_MPI.PRM
  Tot(35)        6        6     2015    140.8    604.0   1480.5   402.00      0.0    138.4      2.4      0.1      0.0    131.6       39    216.5    216.3       78     0.000     0.000     0.000     0.000      107        0        0        0        3       29       19    13.056       55     40.3    5.263   -9.900     1.51    0.000    0.000       26        9     2015  Maize_short_Cahul_6June_Optimum_85_MPI.PRM
  Tot(36)        6        6     2016    168.2    577.0   1458.2   404.00      0.0    155.6     12.6      0.1      0.0    129.7       38    195.0    195.2       81     0.000     0.000     0.000     0.000      107        0        0        0        7       28       16    12.006       54     40.3    4.839   -9.900     1.49    0.000    0.000       26        9     2016  Maize_short_Cahul_6June_Optimum_85_MPI.PRM
  Tot(37)        6        6     2017    233.5    561.6   1453.7   407.00      0.0    202.3     31.2      8.2      0.0    137.4       53    277.3    276.9       88     0.000     0.000     0.000     0.000      107        0        0        0        4        6       13    18.357       79     39.7    7.285   -9.900     1.76    0.000    0.000       26        9     2017  Maize_short_Cahul_6June_Optimum_85_MPI.PRM
  Tot(38)        6        6     2018    165.7    536.5   1498.9   410.00      0.0    161.3      4.4      0.0      0.0    114.1       46    258.3    258.7       87     0.000     0.000     0.000     0.000      107        0        0        0        4        5       13    18.011       77     39.8    7.165   -9.900     1.92    0.000    0.000       26        9     2018  Maize_short_Cahul_6June_Optimum_85_MPI.PRM
  Tot(39)        6        6     2019    147.0    605.5   1482.4   413.00      0.0    144.2      2.8      0.6      0.0    137.9       39    196.3    196.3       78     0.000     0.000     0.000     0.000       98        0        0        0        1       22       19    12.155       53     34.8    4.233   -9.900     1.28    0.000    0.000       26        9     2019  Maize_short_Cahul_6June_Optimum_85_MPI.PRM
  Tot(40)        6        6     2020    113.2    501.5   1215.0   416.00      0.0    112.8      0.4      0.0      0.0     89.2       34    218.4    217.3       93     0.000     0.000     0.000     0.000      107        0        0        0       15       16        5    16.534       82     40.6    6.704   -9.900     2.18    0.000    0.000       26        9     2020  Maize_short_Cahul_6June_Optimum_85_MPI.PRM
  Tot(41)        6        6     2021    167.0    447.2   1127.0   419.00      0.0    161.8      5.2     15.9      0.0    120.6       66    237.6    237.7       92     0.000     0.000     0.000     0.000      107        0        0        0       15        3        8    18.875       87     40.0    7.559   -9.900     2.11    0.000    0.000       26        9     2021  Maize_short_Cahul_6June_Optimum_85_MPI.PRM
  Tot(42)        6        6     2022    134.9    486.9   1179.3   422.00      0.0    124.8     10.1     14.6      0.0    122.6       50    190.9    191.8       83     0.000     0.000     0.000     0.000      107        0        0        0       14       21       16    13.712       65     40.4    5.542   -9.900     1.77    0.000    0.000       26        9     2022  Maize_short_Cahul_6June_Optimum_85_MPI.PRM
  Tot(43)        6        6     2023    311.9    476.9   1171.6   425.00      0.0    260.1     51.8     22.9      0.0     90.0       36    215.7    215.7      100     0.000     0.000     0.000     0.000      107        0        0        0       16        5        0    18.386       93     40.0    7.356   -9.900     2.41    0.000    0.000       26        9     2023  Maize_short_Cahul_6June_Optimum_85_MPI.PRM
  Tot(44)        6        6     2024    139.4    429.3   1035.4   428.00      0.0    138.0      1.4      0.0      0.0     85.5       40    192.4    191.9      100     0.000     0.000     0.000     0.000      107        0        0        0       23       10        0    17.282       94     40.5    6.995   -9.900     2.52    0.000    0.000       26        9     2024  Maize_short_Cahul_6June_Optimum_85_MPI.PRM
  Tot(45)        6        6     2025    470.3    433.0   1081.9   431.00      0.0    330.3    140.0     46.0      0.0     95.5       39    178.2    178.7      100     0.000     0.000     0.000     0.000      107        0        0        0       24        6        0    15.799       93     40.0    6.325   -9.900     2.31    0.000    0.000       26        9     2025  Maize_short_Cahul_6June_Optimum_85_MPI.PRM
  Tot(46)        6        6     2026    185.2    484.3   1319.9   435.00      0.0    178.7      6.5      0.0      0.0     96.8       39    240.5    239.9      100     0.000     0.000     0.000     0.000      107        0        0        0        9        8        0    20.827       93     40.3    8.394   -9.900     2.49    0.000    0.000       26        9     2026  Maize_short_Cahul_6June_Optimum_85_MPI.PRM
  Tot(47)        6        6     2027    253.5    415.2   1114.6   438.00      0.0    244.8      8.7     14.5      0.0    129.1       62    194.7    195.3      100     0.000     0.000     0.000     0.000      107        0        0        0       17        1        0    19.415       97     40.0    7.773   -9.900     2.40    0.000    0.000       26        9     2027  Maize_short_Cahul_6June_Optimum_85_MPI.PRM
  Tot(48)        6        6     2028    139.4    463.1   1176.9   442.00      0.0    137.9      1.5      0.0      0.0    105.7       46    207.2    206.7       89     0.000     0.000     0.000     0.000      107        0        0        0       11       18        7    16.529       76     40.7    6.731   -9.900     2.15    0.000    0.000       26        9     2028  Maize_short_Cahul_6June_Optimum_85_MPI.PRM
  Tot(49)        6        6     2029    244.6    408.8   1181.0   445.00      0.0    213.2     31.4     54.1      0.0    116.1       69    232.3    231.0       99     0.000     0.000     0.000     0.000      107        0        0        0       10        2        1    21.436       96     40.1    8.591   -9.900     2.47    0.000    0.000       26        9     2029  Maize_short_Cahul_6June_Optimum_85_MPI.PRM
  Tot(50)        6        6     2030    183.2    476.3   1045.4   449.00      0.0    171.5     11.7     13.9      0.0     91.8       39    206.8    208.5       98     0.000     0.000     0.000     0.000      107        0        0        0       22       14        2    16.745       88     40.5    6.776   -9.900     2.27    0.000    0.000       26        9     2030  Maize_short_Cahul_6June_Optimum_85_MPI.PRM
  Tot(51)        6        6     2031    283.3    425.3   1039.3   452.00      0.0    231.6     51.7      7.6      0.0    130.9       76    212.8    212.7      100     0.000     0.000     0.000     0.000      107        0        0        0       26        2        0    17.611       97     40.1    7.054   -9.900     2.05    0.000    0.000       26        9     2031  Maize_short_Cahul_6June_Optimum_85_MPI.PRM
  Tot(52)        6        6     2032    153.8    542.4   1337.3   456.00      0.0    134.8     19.0     15.1      0.0    108.5       38    218.8    218.8       84     0.000     0.000     0.000     0.000      107        0        0        0        8       21       13    15.800       68     40.6    6.414   -9.900     1.96    0.000    0.000       26        9     2032  Maize_short_Cahul_6June_Optimum_85_MPI.PRM
  Tot(53)        6        6     2033    265.7    472.1   1118.1   460.00      0.0    256.2      9.5      0.0      0.0    127.9       56    223.2    221.8      100     0.000     0.000     0.000     0.000      107        0        0        0       18        7        0    18.560       95     40.3    7.477   -9.900     2.13    0.000    0.000       26        9     2033  Maize_short_Cahul_6June_Optimum_85_MPI.PRM
  Tot(54)        6        6     2034    176.5    526.5   1360.9   464.00      0.0    168.9      7.6      0.0      0.0    116.8       44    255.6    256.4       95     0.000     0.000     0.000     0.000      107        0        0        0        6        8        5    19.962       86     40.0    7.986   -9.900     2.14    0.000    0.000       26        9     2034  Maize_short_Cahul_6June_Optimum_85_MPI.PRM
  Tot(55)        6        6     2035    105.0    500.0   1168.8   468.00      0.0    103.9      1.1      3.2      0.0    105.5       39    186.4    187.1       86     0.000     0.000     0.000     0.000      107        0        0        0       16       20        9    14.214       71     40.7    5.780   -9.900     1.98    0.000    0.000       26        9     2035  Maize_short_Cahul_6June_Optimum_85_MPI.PRM
  Tot(56)        6        6     2036     47.4    637.5   1455.6   472.00      0.0     47.4      0.0      0.0      0.0     84.3       20    169.7    169.8       80     0.000     0.000     0.000     0.000       97        0        0        0        4       32       17    10.143       43     34.2    3.472   -9.900     1.37    0.000    0.000       26        9     2036  Maize_short_Cahul_6June_Optimum_85_MPI.PRM
  Tot(57)        6        6     2037    170.2    454.8   1202.4   476.00      0.0    152.7     17.5     29.4      0.0    110.1       56    207.9    207.7       85     0.000     0.000     0.000     0.000      107        0        0        0       11       16       13    16.635       74     40.4    6.721   -9.900     2.11    0.000    0.000       26        9     2037  Maize_short_Cahul_6June_Optimum_85_MPI.PRM
  Tot(58)        6        6     2038    246.1    497.8   1136.8   481.00      0.0    212.2     33.9     13.5      0.0     84.9       33    227.6    227.6      100     0.000     0.000     0.000     0.000      107        0        0        0       20       12        0    17.368       89     40.2    6.990   -9.900     2.24    0.000    0.000       26        9     2038  Maize_short_Cahul_6June_Optimum_85_MPI.PRM
  Tot(59)        6        6     2039    233.1    453.4   1248.6   485.00      0.0    221.9     11.2      1.7      0.0    113.7       51    231.7    230.0      100     0.000     0.000     0.000     0.000      107        0        0        0        8        3        0    21.739       95     40.0    8.699   -9.900     2.52    0.000    0.000       26        9     2039  Maize_short_Cahul_6June_Optimum_85_MPI.PRM
  Tot(60)        6        6     2040    125.9    442.5   1135.2   489.00      0.0    124.0      1.9      4.7      0.0     96.3       50    224.3    225.4       96     0.000     0.000     0.000     0.000      107        0        0        0       14        9        5    19.258       89     40.2    7.746   -9.900     2.42    0.000    0.000       26        9     2040  Maize_short_Cahul_6June_Optimum_85_MPI.PRM
  Tot(61)        6        6     2041    243.1    490.5   1134.8   494.00      0.0    221.8     21.3      0.0      0.0    106.9       44    230.9    231.6      100     0.000     0.000     0.000     0.000      107        0        0        0       16        6        0    19.607       94     40.2    7.880   -9.900     2.33    0.000    0.000       26        9     2041  Maize_short_Cahul_6June_Optimum_85_MPI.PRM
  Tot(62)        6        6     2042    237.2    461.3   1179.5   499.00      0.0    209.7     27.5      0.0      0.0     88.0       39    226.6    226.6      100     0.000     0.000     0.000     0.000      107        0        0        0       12        4        0    20.506       94     40.0    8.203   -9.900     2.61    0.000    0.000       26        9     2042  Maize_short_Cahul_6June_Optimum_85_MPI.PRM
  Tot(63)        6        6     2043    200.5    488.0   1363.4   504.00      0.0    193.9      6.6     11.9      0.0    129.3       57    240.4    240.2       91     0.000     0.000     0.000     0.000      107        0        0        0        6        9        7    20.080       84     40.2    8.063   -9.900     2.18    0.000    0.000       26        9     2043  Maize_short_Cahul_6June_Optimum_85_MPI.PRM
  Tot(64)        6        6     2044    110.9    554.5   1332.0   508.00      0.0    108.9      2.0      0.0      0.0     84.4       29    238.9    239.1       90     0.000     0.000     0.000     0.000      107        0        0        0        8       17       10    17.728       77     40.1    7.112   -9.900     2.20    0.000    0.000       26        9     2044  Maize_short_Cahul_6June_Optimum_85_MPI.PRM
  Tot(65)        6        6     2045    127.6    530.9   1379.6   513.00      0.0    125.5      2.1      1.8      0.0     97.4       33    224.8    224.0       92     0.000     0.000     0.000     0.000      107        0        0        0        6       16        7    18.350       78     40.2    7.379   -9.900     2.29    0.000    0.000       26        9     2045  Maize_short_Cahul_6June_Optimum_85_MPI.PRM
  Tot(66)        6        6     2046    201.6    455.9   1325.2   519.00      0.0    191.4     10.2     25.7      0.0    129.7       68    246.9    246.7       93     0.000     0.000     0.000     0.000      107        0        0        0        5       12        6    20.724       85     40.5    8.400   -9.900     2.23    0.000    0.000       26        9     2046  Maize_short_Cahul_6June_Optimum_85_MPI.PRM
  Tot(67)        6        6     2047    296.9    436.2   1207.9   524.00      0.0    272.2     24.7      3.3      0.0    109.9       48    196.5    197.1      100     0.000     0.000     0.000     0.000      107        0        0        0       11        4        0    20.439       95     40.1    8.193   -9.900     2.67    0.000    0.000       26        9     2047  Maize_short_Cahul_6June_Optimum_85_MPI.PRM
  Tot(68)        6        6     2048     70.6    570.3   1367.0   529.00      0.0     70.5      0.1      0.0      0.0     73.8       23    201.4    201.7       83     0.000     0.000     0.000     0.000      107        0        0        0        8       26       17    13.759       59     39.9    5.488   -9.900     1.99    0.000    0.000       26        9     2048  Maize_short_Cahul_6June_Optimum_85_MPI.PRM
  Tot(69)        6        6     2049    162.3    505.5   1287.6   535.00      0.0    159.4      2.9      0.9      0.0     98.6       47    272.4    271.4       93     0.000     0.000     0.000     0.000      107        0        0        0        9        5        7    20.937       87     40.1    8.406   -9.900     2.27    0.000    0.000       26        9     2049  Maize_short_Cahul_6June_Optimum_85_MPI.PRM
  Tot(70)        6        6     2050    155.4    490.5   1307.4   541.00      0.0    154.7      0.7      0.0      0.0    100.1       45    251.0    251.3       94     0.000     0.000     0.000     0.000      107        0        0        0        6        9        5    20.864       87     40.2    8.391   -9.900     2.39    0.000    0.000       26        9     2050  Maize_short_Cahul_6June_Optimum_85_MPI.PRM
  Tot(71)        6        6     2051    240.2    469.9   1225.7   546.00      0.0    227.9     12.3     21.9      0.0    120.8       52    237.0    236.5      100     0.000     0.000     0.000     0.000      107        0        0        0        9       14        0    21.522       93     40.6    8.748   -9.900     2.44    0.000    0.000       26        9     2051  Maize_short_Cahul_6June_Optimum_85_MPI.PRM
  Tot(72)        6        6     2052    155.9    503.4   1257.5   552.00      0.0    149.2      6.7      0.0      0.0     97.0       39    211.6    212.5       85     0.000     0.000     0.000     0.000      107        0        0        0       11       24        9    16.166       71     40.7    6.576   -9.900     2.13    0.000    0.000       26        9     2052  Maize_short_Cahul_6June_Optimum_85_MPI.PRM
  Tot(73)        6        6     2053    146.8    546.3   1342.2   558.00      0.0    145.2      1.6      1.4      0.0    129.8       47    231.5    231.3       88     0.000     0.000     0.000     0.000      107        0        0        0        8       17       11    17.560       75     40.5    7.108   -9.900     1.97    0.000    0.000       26        9     2053  Maize_short_Cahul_6June_Optimum_85_MPI.PRM
  Tot(74)        6        6     2054     66.7    559.1   1448.1   564.00      0.0     66.7      0.0      0.0      0.0     96.1       29    183.1    183.6       82     0.000     0.000     0.000     0.000      103        0        0        0        3       23       18    13.355       55     40.2    5.369   -9.900     1.93    0.000    0.000       26        9     2054  Maize_short_Cahul_6June_Optimum_85_MPI.PRM
  Tot(75)        6        6     2055    130.1    517.6   1308.4   571.00      0.0    127.6      2.5      0.0      0.0     87.4       35    243.2    242.5       92     0.000     0.000     0.000     0.000      107        0        0        0        7       10        6    19.540       82     40.1    7.836   -9.900     2.37    0.000    0.000       26        9     2055  Maize_short_Cahul_6June_Optimum_85_MPI.PRM
  Tot(76)        6        6     2056    142.2    522.9   1299.3   577.00      0.0    137.7      4.5      0.0      0.0     94.1       37    248.6    248.4       96     0.000     0.000     0.000     0.000      107        0        0        0        8        7        5    20.400       88     40.2    8.194   -9.900     2.39    0.000    0.000       26        9     2056  Maize_short_Cahul_6June_Optimum_85_MPI.PRM
  Tot(77)        6        6     2057    112.2    536.6   1317.7   583.00      0.0    110.7      1.5      3.0      0.0     97.7       36    220.5    220.8       85     0.000     0.000     0.000     0.000      107        0        0        0        8       22       12    15.935       68     40.5    6.447   -9.900     2.03    0.000    0.000       26        9     2057  Maize_short_Cahul_6June_Optimum_85_MPI.PRM
  Tot(78)        6        6     2058    227.7    448.2   1244.8   590.00      0.0    206.0     21.7      0.0      0.0    104.0       48    222.8    222.5      100     0.000     0.000     0.000     0.000      107        0        0        0        9        7        0    21.376       95     40.1    8.581   -9.900     2.63    0.000    0.000       26        9     2058  Maize_short_Cahul_6June_Optimum_85_MPI.PRM
  Tot(79)        6        6     2059    113.0    571.4   1447.9   597.00      0.0    104.8      8.2     17.5      0.0    101.2       35    200.9    201.6       75     0.000     0.000     0.000     0.000      107        0        0        0        5       26       21    13.564       56     40.1    5.440   -9.900     1.80    0.000    0.000       26        9     2059  Maize_short_Cahul_6June_Optimum_85_MPI.PRM
  Tot(80)        6        6     2060    108.4    556.0   1309.6   604.00      0.0    101.8      6.6      0.0      0.0     75.9       26    241.0    240.9       91     0.000     0.000     0.000     0.000      107        0        0        0        6       15        8    18.626       78     39.9    7.435   -9.900     2.35    0.000    0.000       26        9     2060  Maize_short_Cahul_6June_Optimum_85_MPI.PRM
  Tot(81)        6        6     2061    181.0    469.4   1150.1   611.00      0.0    171.6      9.4     15.5      0.0     90.6       39    208.8    208.9       95     0.000     0.000     0.000     0.000      107        0        0        0       19       18        3    17.117       85     40.8    6.983   -9.900     2.33    0.000    0.000       26        9     2061  Maize_short_Cahul_6June_Optimum_85_MPI.PRM
  Tot(82)        6        6     2062    179.5    478.4   1336.0   618.00      0.0    176.6      2.9      1.9      0.0    100.0       44    231.6    231.7       93     0.000     0.000     0.000     0.000      107        0        0        0        6       15        4    20.192       85     40.7    8.210   -9.900     2.48    0.000    0.000       26        9     2062  Maize_short_Cahul_6June_Optimum_85_MPI.PRM
  Tot(83)        6        6     2063    154.2    507.7   1322.6   625.00      0.0    150.6      3.6      2.5      0.0     95.7       37    231.4    230.9       98     0.000     0.000     0.000     0.000      107        0        0        0        9       11        1    20.204       90     40.4    8.166   -9.900     2.50    0.000    0.000       26        9     2063  Maize_short_Cahul_6June_Optimum_85_MPI.PRM
  Tot(84)        6        6     2064    172.4    512.1   1434.9   632.00      0.0    165.5      6.9      9.9      0.0    107.3       46    251.9    252.3       91     0.000     0.000     0.000     0.000      107        0        0        0        2       10        9    19.823       80     39.9    7.905   -9.900     2.20    0.000    0.000       26        9     2064  Maize_short_Cahul_6June_Optimum_85_MPI.PRM
  Tot(85)        6        6     2065    200.1    514.2   1278.7   639.00      0.0    191.7      8.4      3.6      0.0    113.9       46    238.5    238.0       95     0.000     0.000     0.000     0.000      107        0        0        0       12       16        4    18.750       86     40.8    7.645   -9.900     2.17    0.000    0.000       26        9     2065  Maize_short_Cahul_6June_Optimum_85_MPI.PRM
  Tot(86)        6        6     2066    155.7    604.5   1493.8   647.00      0.0    145.2     10.5      0.0      0.0     94.3       26    227.5    226.7       91     0.000     0.000     0.000     0.000      107        0        0        0        4       32        4    16.509       69     40.9    6.745   -9.900     2.10    0.000    0.000       26        9     2066  Maize_short_Cahul_6June_Optimum_85_MPI.PRM
  Tot(87)        6        6     2067    212.8    488.6   1314.0   654.00      0.0    199.8     13.0      0.0      0.0     91.5       38    237.6    237.0      100     0.000     0.000     0.000     0.000      107        0        0        0        7        7        0    21.990       94     40.1    8.828   -9.900     2.68    0.000    0.000       26        9     2067  Maize_short_Cahul_6June_Optimum_85_MPI.PRM
  Tot(88)        6        6     2068    109.2    528.3   1355.3   662.00      0.0    106.1      3.1      0.0      0.0     73.0       24    207.9    207.9       96     0.000     0.000     0.000     0.000      107        0        0        0        6       25        2    18.062       78     40.8    7.368   -9.900     2.62    0.000    0.000       26        9     2068  Maize_short_Cahul_6June_Optimum_85_MPI.PRM
  Tot(89)        6        6     2069    108.5    553.7   1439.8   669.00      0.0    105.0      3.5      6.9      0.0     83.9       29    229.2    230.7       90     0.000     0.000     0.000     0.000      107        0        0        0        3       13        8    19.152       80     40.1    7.682   -9.900     2.45    0.000    0.000       26        9     2069  Maize_short_Cahul_6June_Optimum_85_MPI.PRM
  Tot(90)        6        6     2070     50.3    605.2   1572.4   677.00      0.0     50.3      0.0      0.0      0.0     76.8       20    163.6    164.3       77     0.000     0.000     0.000     0.000       96        0        0        0        1       30       18    10.304       41     33.2    3.426   -9.900     1.51    0.000    0.000       26        9     2070  Maize_short_Cahul_6June_Optimum_85_MPI.PRM
  Tot(91)        6        6     2071     56.1    621.7   1573.5   685.00      0.0     54.3      1.8      1.7      0.0     85.6       24    182.5    182.5       77     0.000     0.000     0.000     0.000      100        0        0        0        2       23       19    12.679       50     36.8    4.665   -9.900     1.75    0.000    0.000       26        9     2071  Maize_short_Cahul_6June_Optimum_85_MPI.PRM
  Tot(92)        6        6     2072     83.2    646.5   1526.0   693.00      0.0     83.1      0.1      0.0      0.0     95.8       22    182.2    181.5       85     0.000     0.000     0.000     0.000      107        0        0        0        4       35       12    12.169       51     40.7    4.952   -9.900     1.78    0.000    0.000       26        9     2072  Maize_short_Cahul_6June_Optimum_85_MPI.PRM
  Tot(93)        6        6     2073    157.7    443.7   1278.5   701.00      0.0    154.0      3.7      5.7      0.0     88.0       42    229.5    229.1      100     0.000     0.000     0.000     0.000      107        0        0        0        6        5        0    22.963       95     40.2    9.235   -9.900     2.91    0.000    0.000       26        9     2073  Maize_short_Cahul_6June_Optimum_85_MPI.PRM
  Tot(94)        6        6     2074    169.8    483.6   1314.9   709.00      0.0    164.0      5.8      0.0      0.0    102.2       46    244.7    244.2      100     0.000     0.000     0.000     0.000      107        0        0        0        7        4        0    21.963       95     40.0    8.795   -9.900     2.54    0.000    0.000       26        9     2074  Maize_short_Cahul_6June_Optimum_85_MPI.PRM
  Tot(95)        6        6     2075    161.0    506.1   1468.1   717.00      0.0    149.0     12.0     29.4      0.0    120.3       51    211.5    213.0       83     0.000     0.000     0.000     0.000      107        0        0        0        3       19       15    16.944       69     40.4    6.837   -9.900     2.06    0.000    0.000       26        9     2075  Maize_short_Cahul_6June_Optimum_85_MPI.PRM
  Tot(96)        6        6     2076    164.4    584.8   1588.6   725.00      0.0    150.1     14.3      0.0      0.0     77.1       24    263.4    260.6       98     0.000     0.000     0.000     0.000      107        0        0        0        2       12        1    21.122       87     40.2    8.500   -9.900     2.50    0.000    0.000       26        9     2076  Maize_short_Cahul_6June_Optimum_85_MPI.PRM
  Tot(97)        6        6     2077    192.5    510.5   1494.8   733.00      0.0    183.9      8.6      8.1      0.0    114.9       45    221.3    222.7       90     0.000     0.000     0.000     0.000      107        0        0        0        3       16        6    19.058       79     40.6    7.738   -9.900     2.30    0.000    0.000       26        9     2077  Maize_short_Cahul_6June_Optimum_85_MPI.PRM
  Tot(98)        6        6     2078    160.4    534.2   1427.8   742.00      0.0    150.8      9.6     12.5      0.0    120.3       47    229.1    230.5       91     0.000     0.000     0.000     0.000      107        0        0        0        7        7       10    18.632       82     40.1    7.465   -9.900     2.14    0.000    0.000       26        9     2078  Maize_short_Cahul_6June_Optimum_85_MPI.PRM
  Tot(99)        6        6     2079    107.3    549.7   1377.4   750.00      0.0    102.4      4.9      0.0      0.0     82.2       31    230.6    230.0       88     0.000     0.000     0.000     0.000      107        0        0        0        6        8       11    18.136       79     40.0    7.248   -9.900     2.32    0.000    0.000       26        9     2079  Maize_short_Cahul_6June_Optimum_85_MPI.PRM
 Tot(100)        6        6     2080     99.4    583.1   1483.3   758.00      0.0     98.3      1.1      0.0      0.0     94.6       30    197.6    198.5       81     0.000     0.000     0.000     0.000      103        0        0        0        3       22       18    13.867       59     40.2    5.568   -9.900     1.94    0.000    0.000       26        9     2080  Maize_short_Cahul_6June_Optimum_85_MPI.PRM
 Tot(101)        6        6     2081    180.2    499.7   1374.7   767.00      0.0    170.1     10.1      4.5      0.0    109.9       46    233.5    232.4       96     0.000     0.000     0.000     0.000      107        0        0        0        7       19        3    19.801       86     40.8    8.082   -9.900     2.35    0.000    0.000       26        9     2081  Maize_short_Cahul_6June_Optimum_85_MPI.PRM
 Tot(102)        6        6     2082     62.1    645.3   1634.2   775.00      0.0     61.4      0.7      0.0      0.0     90.5       24    184.1    185.2       78     0.000     0.000     0.000     0.000       99        0        0        0        1       25       19    12.210       50     35.9    4.387   -9.900     1.60    0.000    0.000       26        9     2082  Maize_short_Cahul_6June_Optimum_85_MPI.PRM
 Tot(103)        6        6     2083    165.8    524.8   1497.1   784.00      0.0    153.5     12.3     34.4      0.0    100.7       40    213.8    212.7       85     0.000     0.000     0.000     0.000      107        0        0        0        3       22       10    17.010       71     40.7    6.922   -9.900     2.20    0.000    0.000       26        9     2083  Maize_short_Cahul_6June_Optimum_85_MPI.PRM
 Tot(104)        6        6     2084    123.9    499.1   1414.9   792.00      0.0    118.8      5.1      7.5      0.0    121.6       51    202.8    203.8       86     0.000     0.000     0.000     0.000      107        0        0        0        5       11       13    17.493       74     40.1    7.019   -9.900     2.16    0.000    0.000       26        9     2084  Maize_short_Cahul_6June_Optimum_85_MPI.PRM
 Tot(105)        6        6     2085     90.5    590.0   1508.2   801.00      0.0     89.4      1.1      0.5      0.0    103.1       32    183.3    183.4       79     0.000     0.000     0.000     0.000      107        0        0        0        3       26       18    12.256       50     40.4    4.950   -9.900     1.73    0.000    0.000       26        9     2085  Maize_short_Cahul_6June_Optimum_85_MPI.PRM
 Tot(106)        6        6     2086     54.7    682.5   1636.4   810.00      0.0     54.1      0.6      0.8      0.0     88.5       20    171.7    171.7       78     0.000     0.000     0.000     0.000       96        0        0        0        1       30       18    10.809       44     33.1    3.578   -9.900     1.38    0.000    0.000       26        9     2086  Maize_short_Cahul_6June_Optimum_85_MPI.PRM
 Tot(107)        6        6     2087    102.8    501.1   1375.0   818.00      0.0     99.1      3.7      5.1      0.0     66.3       26    220.9    220.6       98     0.000     0.000     0.000     0.000      107        0        0        0        6       17        2    19.666       86     40.3    7.926   -9.900     2.76    0.000    0.000       26        9     2087  Maize_short_Cahul_6June_Optimum_85_MPI.PRM
 Tot(108)        6        6     2088    182.1    523.2   1451.6   827.00      0.0    165.3     16.8     35.6      0.0    121.6       46    215.1    215.0       90     0.000     0.000     0.000     0.000      107        0        0        0        3       13        8    19.454       82     40.4    7.860   -9.900     2.33    0.000    0.000       26        9     2088  Maize_short_Cahul_6June_Optimum_85_MPI.PRM
 Tot(109)        6        6     2089     99.9    497.1   1371.7   836.00      0.0     99.6      0.3      0.1      0.0    104.9       43    193.4    193.6       86     0.000     0.000     0.000     0.000      107        0        0        0        8       21       11    15.620       69     40.6    6.343   -9.900     2.13    0.000    0.000       26        9     2089  Maize_short_Cahul_6June_Optimum_85_MPI.PRM
 Tot(110)        6        6     2090     22.8    639.2   1558.0   845.00      0.0     22.8      0.0      0.0      0.0     59.9       14    170.6    170.8       82     0.000     0.000     0.000     0.000      102        0        0        0        4       32       16    11.362       49     39.4    4.477   -9.900     1.95    0.000    0.000       26        9     2090  Maize_short_Cahul_6June_Optimum_85_MPI.PRM
 Tot(111)        6        6     2091     96.4    594.0   1553.6   854.00      0.0     96.4      0.0      0.0      0.0     86.1       24    194.9    194.8       84     0.000     0.000     0.000     0.000      107        0        0        0        3       32       12    14.131       59     40.7    5.747   -9.900     2.05    0.000    0.000       26        9     2091  Maize_short_Cahul_6June_Optimum_85_MPI.PRM
 Tot(112)        6        6     2092     59.0    701.0   1611.6   863.00      0.0     58.9      0.1      0.0      0.0     91.7       20    163.8    163.9       78     0.000     0.000     0.000     0.000       90        0        0        0        0       35       18     8.597       36     27.1    2.331   -9.900     0.94    0.000    0.000       26        9     2092  Maize_short_Cahul_6June_Optimum_85_MPI.PRM
 Tot(113)        6        6     2093    106.2    568.1   1498.5   872.00      0.0    104.2      2.0      0.0      0.0     98.7       38    223.4    222.9       81     0.000     0.000     0.000     0.000      107        0        0        0        2       13       16    16.701       70     40.1    6.701   -9.900     2.08    0.000    0.000       26        9     2093  Maize_short_Cahul_6June_Optimum_85_MPI.PRM
 Tot(114)        6        6     2094    109.0    559.8   1526.9   881.00      0.0     98.9     10.1      0.0      0.0     71.7       24    224.9    224.2       93     0.000     0.000     0.000     0.000      107        0        0        0        2       30        5    17.517       73     40.8    7.154   -9.900     2.41    0.000    0.000       26        9     2094  Maize_short_Cahul_6June_Optimum_85_MPI.PRM
 Tot(115)        6        6     2095    136.1    645.6   1603.0   890.00      0.0    111.6     24.5      0.0      0.0     80.3       19    206.6    207.2       93     0.000     0.000     0.000     0.000      107        0        0        0        5       29        5    15.516       69     40.8    6.336   -9.900     2.21    0.000    0.000       26        9     2095  Maize_short_Cahul_6June_Optimum_85_MPI.PRM
 Tot(116)        6        6     2096     65.2    717.7   1767.2   899.00      0.0     65.1      0.1      0.0      0.0     93.9       21    173.0    173.6       76     0.000     0.000     0.000     0.000       92        0        0        0        0       31       18     9.221       38     26.1    2.406   -9.900     0.91    0.000    0.000       26        9     2096  Maize_short_Cahul_6June_Optimum_85_MPI.PRM
 Tot(117)        6        6     2097    277.7    481.4   1453.9   908.00      0.0    243.4     34.3      0.0      0.0    106.9       43    213.6    211.9      100     0.000     0.000     0.000     0.000      107        0        0        0        6        7        0    21.084       94     40.1    8.458   -9.900     2.64    0.000    0.000       26        9     2097  Maize_short_Cahul_6June_Optimum_85_MPI.PRM
 Tot(118)        6        6     2098    181.1    483.8   1415.3   917.00      0.0    151.7     29.4     17.9      0.0    108.1       46    223.1    223.5       96     0.000     0.000     0.000     0.000      107        0        0        0        3       11        3    21.096       89     40.3    8.511   -9.900     2.57    0.000    0.000       26        9     2098  Maize_short_Cahul_6June_Optimum_85_MPI.PRM
 Tot(119)        6        6     2099    126.4    612.8   1543.3   927.00      0.0    119.2      7.2      0.0      0.0     91.3       24    199.0    200.1       90     0.000     0.000     0.000     0.000      107        0        0        0        3       34        6    14.425       62     40.8    5.888   -9.900     2.03    0.000    0.000       26        9     2099  Maize_short_Cahul_6June_Optimum_85_MPI.PRM
