AquaCrop 7.0 (August 2022) - Output created on (date) : 23-11-2022   at (time) : 11:35:10

    RunNr     Day1   Month1    Year1     Rain      ETo       GD     CO2      Irri   Infilt   Runoff    Drain   Upflow        E     E/Ex       Tr      TrW   Tr/Trx    SaltIn   SaltOut    SaltUp  SaltProf     Cycle   SaltStr  FertStr  WeedStr  TempStr   ExpStr   StoStr  BioMass  Brelative   HI    Y(dry)  Y(fresh)    WPet      Bin     Bout     DayN   MonthN    YearN
                                           mm       mm  degC.day    ppm        mm       mm       mm       mm       mm       mm        %       mm       mm        %    ton/ha    ton/ha    ton/ha    ton/ha      days       %        %        %        %        %        %    ton/ha        %       %    ton/ha   ton/ha    kg/m3   ton/ha   ton/ha
   Tot(1)       22        5     1981    131.8    514.9   1295.7   340.11      0.0    131.0      0.8      0.0      0.0    103.1       43    242.3    188.3       87     0.000     0.000     0.000     0.000      107        0       42       25        8        8       10    13.074       61     40.1    5.245   -9.900     1.52    0.000    0.000       11        9     1981  Maize_short_Cahul_22May_NonOptimum_85_MOHC.PRM
   Tot(2)       22        5     1982    240.1    482.2   1316.7   341.22      0.0    239.1      1.0      0.0      0.0    135.6       61    275.4    212.2      100     0.000     0.000     0.000     0.000      107        0       42       25        5        3        0    16.733       74     40.1    6.705   -9.900     1.63    0.000    0.000       11        9     1982  Maize_short_Cahul_22May_NonOptimum_85_MOHC.PRM
   Tot(3)       22        5     1983    279.5    484.1   1295.1   342.84      0.0    252.0     27.5     32.8      0.0    123.2       58    279.7    217.1      100     0.000     0.000     0.000     0.000      107        0       42       25        7        5        0    16.256       74     40.2    6.533   -9.900     1.62    0.000    0.000       11        9     1983  Maize_short_Cahul_22May_NonOptimum_85_MOHC.PRM
   Tot(4)       22        5     1984    165.7    468.8   1167.8   344.40      0.0    165.3      0.4      0.0      0.0    136.8       66    242.9    189.8       92     0.000     0.000     0.000     0.000      107        0       42       25       11        5        7    14.500       68     40.1    5.810   -9.900     1.53    0.000    0.000       11        9     1984  Maize_short_Cahul_22May_NonOptimum_85_MOHC.PRM
   Tot(5)       22        5     1985    327.9    481.2   1222.6   345.87      0.0    296.5     31.4     47.4      0.0    134.3       67    278.4    214.6       98     0.000     0.000     0.000     0.000      107        0       42       25       12        3        1    15.693       74     40.1    6.300   -9.900     1.53    0.000    0.000       11        9     1985  Maize_short_Cahul_22May_NonOptimum_85_MOHC.PRM
   Tot(6)       22        5     1986    159.8    540.0   1341.9   347.19      0.0    158.4      1.4      1.2      0.0    122.8       49    246.5    193.1       84     0.000     0.000     0.000     0.000      107        0       42       25        6       11       12    13.002       59     40.0    5.203   -9.900     1.41    0.000    0.000       11        9     1986  Maize_short_Cahul_22May_NonOptimum_85_MOHC.PRM
   Tot(7)       22        5     1987    237.0    495.2   1234.6   348.98      0.0    226.5     10.5      5.8      0.0    111.8       54    293.7    227.1      100     0.000     0.000     0.000     0.000      107        0       42       25       10        4        0    16.131       74     40.2    6.484   -9.900     1.60    0.000    0.000       11        9     1987  Maize_short_Cahul_22May_NonOptimum_85_MOHC.PRM
   Tot(8)       22        5     1988    215.6    496.5   1322.9   351.45      0.0    198.9     16.7     20.3      0.0    136.2       59    210.5    166.9       80     0.000     0.000     0.000     0.000      107        0       42       25        8       15       16    10.573       48     40.0    4.232   -9.900     1.22    0.000    0.000       11        9     1988  Maize_short_Cahul_22May_NonOptimum_85_MOHC.PRM
   Tot(9)       22        5     1989    278.3    464.8   1227.8   352.89      0.0    269.4      8.9      0.8      0.0    130.8       68    277.9    214.9       98     0.000     0.000     0.000     0.000      107        0       42       25       11        5        1    16.020       73     40.1    6.426   -9.900     1.57    0.000    0.000       11        9     1989  Maize_short_Cahul_22May_NonOptimum_85_MOHC.PRM
  Tot(10)       22        5     1990    134.6    519.4   1222.9   354.16      0.0    133.4      1.2      4.2      0.0    134.3       52    210.8    167.7       82     0.000     0.000     0.000     0.000      105        0       42       25       11       20       18    10.858       49     40.0    4.348   -9.900     1.26    0.000    0.000       11        9     1990  Maize_short_Cahul_22May_NonOptimum_85_MOHC.PRM
  Tot(11)       22        5     1991    339.7    442.2   1261.6   355.48      0.0    294.4     45.3     75.9      0.0    115.8       67    276.1    212.4      100     0.000     0.000     0.000     0.000      107        0       42       25       10        2        0    16.678       75     40.1    6.687   -9.900     1.71    0.000    0.000       11        9     1991  Maize_short_Cahul_22May_NonOptimum_85_MOHC.PRM
  Tot(12)       22        5     1992    172.1    523.4   1310.7   356.27      0.0    171.3      0.8      0.0      0.0    144.3       66    238.3    187.2       79     0.000     0.000     0.000     0.000      107        0       42       25        8       14       15    12.013       53     39.8    4.786   -9.900     1.25    0.000    0.000       11        9     1992  Maize_short_Cahul_22May_NonOptimum_85_MOHC.PRM
  Tot(13)       22        5     1993    184.6    515.2   1213.1   356.95      0.0    177.7      6.9     14.6      0.0    114.5       50    251.4    195.1       90     0.000     0.000     0.000     0.000      107        0       42       25       12        7        7    13.380       65     40.1    5.368   -9.900     1.47    0.000    0.000       11        9     1993  Maize_short_Cahul_22May_NonOptimum_85_MOHC.PRM
  Tot(14)       22        5     1994    229.2    520.8   1387.8   358.63      0.0    210.6     18.6     40.3      0.0    104.3       44    270.1    211.4       90     0.000     0.000     0.000     0.000      107        0       42       25        7        9        8    14.707       63     40.2    5.917   -9.900     1.58    0.000    0.000       11        9     1994  Maize_short_Cahul_22May_NonOptimum_85_MOHC.PRM
  Tot(15)       22        5     1995    194.2    524.5   1401.1   360.62      0.0    189.8      4.4      0.3      0.0    116.9       46    243.9    191.4       88     0.000     0.000     0.000     0.000      107        0       42       25        3       13        9    13.202       58     40.3    5.317   -9.900     1.47    0.000    0.000       11        9     1995  Maize_short_Cahul_22May_NonOptimum_85_MOHC.PRM
  Tot(16)       22        5     1996    152.9    537.6   1282.2   362.37      0.0    143.3      9.6      0.4      0.0     97.4       31    204.1    164.0       87     0.000     0.000     0.000     0.000      107        0       42       25        9       27        7    11.290       52     40.7    4.595   -9.900     1.52    0.000    0.000       11        9     1996  Maize_short_Cahul_22May_NonOptimum_85_MOHC.PRM
  Tot(17)       22        5     1997    432.8    444.0   1221.9   363.47      0.0    383.5     49.3     17.3      0.0    148.6       78    259.9    201.1      100     0.000     0.000     0.000     0.000      107        0       42       25       10        1        0    16.771       75     40.0    6.712   -9.900     1.64    0.000    0.000       11        9     1997  Maize_short_Cahul_22May_NonOptimum_85_MOHC.PRM
  Tot(18)       22        5     1998    180.5    509.6   1309.0   366.50      0.0    177.7      2.8      0.0      0.0    130.0       58    239.8    187.2       85     0.000     0.000     0.000     0.000      107        0       42       25        8        8       11    12.334       57     40.0    4.933   -9.900     1.33    0.000    0.000       11        9     1998  Maize_short_Cahul_22May_NonOptimum_85_MOHC.PRM
  Tot(19)       22        5     1999    308.1    540.3   1455.6   368.14      0.0    295.8     12.3     14.0      0.0    143.6       56    302.8    234.8       99     0.000     0.000     0.000     0.000      107        0       42       25        3       11        1    16.563       71     40.6    6.733   -9.900     1.51    0.000    0.000       11        9     1999  Maize_short_Cahul_22May_NonOptimum_85_MOHC.PRM
  Tot(20)       22        5     2000    130.9    589.8   1344.8   369.41      0.0    120.7     10.2      0.0      0.0     97.4       28    199.7    160.6       79     0.000     0.000     0.000     0.000      107        0       42       25        7       21       16     9.657       43     40.0    3.866   -9.900     1.30    0.000    0.000       11        9     2000  Maize_short_Cahul_22May_NonOptimum_85_MOHC.PRM
  Tot(21)       22        5     2001    279.5    543.9   1369.9   371.07      0.0    230.6     48.9     24.2      0.0    149.2       55    207.6    163.4       77     0.000     0.000     0.000     0.000       99        0       42       25        6       18       20    10.009       43     35.9    3.594   -9.900     1.04    0.000    0.000       11        9     2001  Maize_short_Cahul_22May_NonOptimum_85_MOHC.PRM
  Tot(22)       22        5     2002    292.1    558.8   1450.8   373.16      0.0    255.3     36.8      0.0      0.0    114.8       41    303.8    237.8      100     0.000     0.000     0.000     0.000      107        0       42       25        4       15        0    16.489       69     40.0    6.597   -9.900     1.58    0.000    0.000       11        9     2002  Maize_short_Cahul_22May_NonOptimum_85_MOHC.PRM
  Tot(23)       22        5     2003    116.6    575.5   1394.8   375.80      0.0    116.5      0.1      0.0      0.0    105.7       34    221.9    176.4       82     0.000     0.000     0.000     0.000      107        0       42       25        6       17       16    11.636       52     39.7    4.620   -9.900     1.41    0.000    0.000       11        9     2003  Maize_short_Cahul_22May_NonOptimum_85_MOHC.PRM
  Tot(24)       22        5     2004    264.5    517.1   1270.8   377.49      0.0    258.7      5.8      1.7      0.0    127.4       55    294.4    229.1      100     0.000     0.000     0.000     0.000      107        0       42       25        9        6        0    16.498       74     40.2    6.631   -9.900     1.57    0.000    0.000       11        9     2004  Maize_short_Cahul_22May_NonOptimum_85_MOHC.PRM
  Tot(25)       22        5     2005    340.5    530.1   1378.5   379.80      0.0    324.9     15.6      7.2      0.0    155.4       67    317.3    243.9      100     0.000     0.000     0.000     0.000      107        0       42       25        5        2        0    17.621       75     40.0    7.054   -9.900     1.49    0.000    0.000       11        9     2005  Maize_short_Cahul_22May_NonOptimum_85_MOHC.PRM
  Tot(26)       22        5     2006    165.3    572.9   1356.3   381.90      0.0    162.9      2.4      0.0      0.0    124.3       41    230.5    184.8       82     0.000     0.000     0.000     0.000      107        0       42       25        7       27       12    11.758       51     40.6    4.773   -9.900     1.35    0.000    0.000       11        9     2006  Maize_short_Cahul_22May_NonOptimum_85_MOHC.PRM
  Tot(27)       22        5     2007    154.6    656.0   1505.6   383.77      0.0    153.3      1.3      0.0      0.0    127.0       32    225.1    180.5       80     0.000     0.000     0.000     0.000      107        0       42       25        3       31       12    10.407       45     40.5    4.218   -9.900     1.20    0.000    0.000       11        9     2007  Maize_short_Cahul_22May_NonOptimum_85_MOHC.PRM
  Tot(28)       22        5     2008    135.9    609.6   1430.9   385.59      0.0    135.2      0.7      0.6      0.0    124.8       39    228.9    182.6       78     0.000     0.000     0.000     0.000      107        0       42       25        3       20       19    10.856       46     39.6    4.304   -9.900     1.22    0.000    0.000       11        9     2008  Maize_short_Cahul_22May_NonOptimum_85_MOHC.PRM
  Tot(29)       22        5     2009    193.1    608.5   1428.8   387.37      0.0    186.0      7.1      0.0      0.0    132.2       42    241.1    189.3       81     0.000     0.000     0.000     0.000      107        0       42       25        4       18       16    11.138       47     40.1    4.468   -9.900     1.20    0.000    0.000       11        9     2009  Maize_short_Cahul_22May_NonOptimum_85_MOHC.PRM
  Tot(30)       22        5     2010    262.4    544.9   1456.8   389.85      0.0    244.4     18.0     23.9      0.0    128.7       53    284.3    219.8       90     0.000     0.000     0.000     0.000      107        0       42       25        5        4        7    14.944       65     39.8    5.947   -9.900     1.44    0.000    0.000       11        9     2010  Maize_short_Cahul_22May_NonOptimum_85_MOHC.PRM
  Tot(31)       22        5     2011    160.8    575.7   1434.7   391.63      0.0    157.7      3.1      5.8      0.0    126.0       47    245.7    193.3       78     0.000     0.000     0.000     0.000      107        0       42       25        3       14       18    12.353       52     39.7    4.908   -9.900     1.32    0.000    0.000       11        9     2011  Maize_short_Cahul_22May_NonOptimum_85_MOHC.PRM
  Tot(32)       22        5     2012    196.3    639.5   1494.0   393.82      0.0    189.7      6.6      8.8      0.0    148.0       47    246.7    195.6       76     0.000     0.000     0.000     0.000      107        0       42       25        3       24       19    10.916       46     40.2    4.383   -9.900     1.11    0.000    0.000       11        9     2012  Maize_short_Cahul_22May_NonOptimum_85_MOHC.PRM
  Tot(33)       22        5     2013    252.7    563.0   1428.9   396.48      0.0    239.0     13.7     14.7      0.0    144.5       57    275.7    214.5       86     0.000     0.000     0.000     0.000      107        0       42       25        3        8       10    14.229       60     40.0    5.696   -9.900     1.36    0.000    0.000       11        9     2013  Maize_short_Cahul_22May_NonOptimum_85_MOHC.PRM
  Tot(34)       22        5     2014    196.3    573.6   1463.6   398.55      0.0    193.6      2.7      4.1      0.0    147.2       60    268.2    210.3       80     0.000     0.000     0.000     0.000      107        0       42       25        3       10       16    13.352       56     39.6    5.286   -9.900     1.27    0.000    0.000       11        9     2014  Maize_short_Cahul_22May_NonOptimum_85_MOHC.PRM
  Tot(35)       22        5     2015    138.9    636.7   1471.6   402.00      0.0    136.7      2.2      0.0      0.0    116.3       36    235.7    186.1       74     0.000     0.000     0.000     0.000      107        0       42       25        4       20       19    10.978       46     40.0    4.386   -9.900     1.25    0.000    0.000       11        9     2015  Maize_short_Cahul_22May_NonOptimum_85_MOHC.PRM
  Tot(36)       22        5     2016    164.9    587.5   1485.2   404.00      0.0    161.0      3.9      8.4      0.0    156.6       54    214.7    170.5       73     0.000     0.000     0.000     0.000      107        0       42       25        3       24       23    10.200       42     39.8    4.062   -9.900     1.09    0.000    0.000       11        9     2016  Maize_short_Cahul_22May_NonOptimum_85_MOHC.PRM
  Tot(37)       22        5     2017    244.3    575.3   1442.4   407.00      0.0    217.3     27.0      1.4      0.0    121.3       49    311.7    241.7       91     0.000     0.000     0.000     0.000      107        0       42       25        3        6        9    15.508       65     39.9    6.190   -9.900     1.43    0.000    0.000       11        9     2017  Maize_short_Cahul_22May_NonOptimum_85_MOHC.PRM
  Tot(38)       22        5     2018    162.1    570.8   1538.6   410.00      0.0    157.2      4.9      0.0      0.0     92.0       33    276.6    215.6       88     0.000     0.000     0.000     0.000      107        0       42       25        2        8       10    14.907       62     39.6    5.910   -9.900     1.60    0.000    0.000       11        9     2018  Maize_short_Cahul_22May_NonOptimum_85_MOHC.PRM
  Tot(39)       22        5     2019    162.8    617.9   1528.8   413.00      0.0    161.5      1.3      0.0      0.0    164.0       51    219.7    174.0       76     0.000     0.000     0.000     0.000      105        0       42       25        1       20       21    10.934       45     39.4    4.308   -9.900     1.12    0.000    0.000       11        9     2019  Maize_short_Cahul_22May_NonOptimum_85_MOHC.PRM
  Tot(40)       22        5     2020     60.0    697.2   1596.2   416.00      0.0     59.7      0.3      0.0      0.0     91.0       20    173.3    140.3       75     0.000     0.000     0.000     0.000       90        0       42       25        2       33       19     7.229       30     26.9    1.948   -9.900     0.74    0.000    0.000       11        9     2020  Maize_short_Cahul_22May_NonOptimum_85_MOHC.PRM
  Tot(41)       22        5     2021     27.4    721.0   1620.9   419.00      0.0     27.4      0.0      0.0      0.0     66.4       13    161.5    131.9       78     0.000     0.000     0.000     0.000       92        0       42       25        1       36       17     6.770       28     29.2    1.975   -9.900     0.87    0.000    0.000       11        9     2021  Maize_short_Cahul_22May_NonOptimum_85_MOHC.PRM
  Tot(42)       22        5     2022     45.9    656.6   1560.9   422.00      0.0     45.2      0.7      0.0      0.0     77.0       19    175.7    140.9       73     0.000     0.000     0.000     0.000       90        0       42       25        3       29       20     7.577       31     12.7    0.965   -9.900     0.39    0.000    0.000       11        9     2022  Maize_short_Cahul_22May_NonOptimum_85_MOHC.PRM
  Tot(43)       22        5     2023    108.9    623.7   1473.7   425.00      0.0    108.9      0.0      0.0      0.0    124.0       33    170.5    137.1       73     0.000     0.000     0.000     0.000       90        0       42       25        2       32       20     7.154       30     27.0    1.928   -9.900     0.70    0.000    0.000       11        9     2023  Maize_short_Cahul_22May_NonOptimum_85_MOHC.PRM
  Tot(44)       22        5     2024     58.1    685.1   1622.6   428.00      0.0     57.3      0.8      2.2      0.0     91.7       22    166.2    133.4       72     0.000     0.000     0.000     0.000       88        0       42       25        1       30       20     7.224       29     24.8    1.791   -9.900     0.70    0.000    0.000       11        9     2024  Maize_short_Cahul_22May_NonOptimum_85_MOHC.PRM
  Tot(45)       22        5     2025    149.8    637.4   1539.9   431.00      0.0    146.4      3.4      3.0      0.0    150.9       45    203.4    161.7       70     0.000     0.000     0.000     0.000      107        0       42       25        3       26       26     9.053       38     39.5    3.580   -9.900     1.01    0.000    0.000       11        9     2025  Maize_short_Cahul_22May_NonOptimum_85_MOHC.PRM
  Tot(46)       22        5     2026    131.6    625.3   1533.6   435.00      0.0    123.0      8.6      8.3      0.0    108.3       29    169.5    135.8       71     0.000     0.000     0.000     0.000       91        0       42       25        4       29       20     7.710       32     27.8    2.143   -9.900     0.79    0.000    0.000       11        9     2026  Maize_short_Cahul_22May_NonOptimum_85_MOHC.PRM
  Tot(47)       22        5     2027    136.3    607.9   1571.2   438.00      0.0    135.9      0.4      0.0      0.0     97.0       32    247.1    195.0       77     0.000     0.000     0.000     0.000      107        0       42       25        2       19       17    12.101       49     39.5    4.784   -9.900     1.39    0.000    0.000       11        9     2027  Maize_short_Cahul_22May_NonOptimum_85_MOHC.PRM
  Tot(48)       22        5     2028     61.7    692.0   1553.2   442.00      0.0     61.7      0.0      0.0      0.0     94.3       22    164.4    133.2       73     0.000     0.000     0.000     0.000       85        0       42       25        5       34       20     6.567       27     21.8    1.433   -9.900     0.56    0.000    0.000       11        9     2028  Maize_short_Cahul_22May_NonOptimum_85_MOHC.PRM
  Tot(49)       22        5     2029    152.9    607.7   1569.1   445.00      0.0    149.4      3.5      5.8      0.0    152.9       47    208.8    165.9       75     0.000     0.000     0.000     0.000      100        0       42       25        1       27       22     9.847       40     36.8    3.620   -9.900     1.01    0.000    0.000       11        9     2029  Maize_short_Cahul_22May_NonOptimum_85_MOHC.PRM
  Tot(50)       22        5     2030    198.7    598.7   1519.6   449.00      0.0    164.9     33.8     32.7      0.0    138.0       45    213.2    169.5       76     0.000     0.000     0.000     0.000      102        0       42       25        3       26       22    10.210       41     38.4    3.922   -9.900     1.13    0.000    0.000       11        9     2030  Maize_short_Cahul_22May_NonOptimum_85_MOHC.PRM
  Tot(51)       22        5     2031     54.0    669.0   1651.8   452.00      0.0     53.9      0.1      0.0      0.0     83.3       20    181.0    146.1       76     0.000     0.000     0.000     0.000       93        0       42       25        1       30       19     8.130       33     30.2    2.452   -9.900     0.94    0.000    0.000       11        9     2031  Maize_short_Cahul_22May_NonOptimum_85_MOHC.PRM
  Tot(52)       22        5     2032    196.6    570.8   1473.4   456.00      0.0    171.8     24.8     33.0      0.0     97.9       32    241.9    193.6       87     0.000     0.000     0.000     0.000      107        0       42       25        5       33        9    12.698       52     40.8    5.184   -9.900     1.53    0.000    0.000       11        9     2032  Maize_short_Cahul_22May_NonOptimum_85_MOHC.PRM
  Tot(53)       22        5     2033    123.1    673.5   1663.7   460.00      0.0    116.6      6.5     10.2      0.0    130.8       31    174.8    141.4       75     0.000     0.000     0.000     0.000       92        0       42       25        0       30       19     8.126       33     29.0    2.357   -9.900     0.83    0.000    0.000       11        9     2033  Maize_short_Cahul_22May_NonOptimum_85_MOHC.PRM
  Tot(54)       22        5     2034     58.1    764.9   1698.6   464.00      0.0     56.9      1.2      1.4      0.0     91.1       17    156.8    127.7       71     0.000     0.000     0.000     0.000       83        0       42       25        2       36       20     5.860       23     20.3    1.188   -9.900     0.48    0.000    0.000       11        9     2034  Maize_short_Cahul_22May_NonOptimum_85_MOHC.PRM
  Tot(55)       22        5     2035    100.3    652.2   1587.0   468.00      0.0     95.8      4.5     11.3      0.0    100.6       26    170.7    136.5       72     0.000     0.000     0.000     0.000       87        0       42       25        6       30       21     7.302       29     23.7    1.733   -9.900     0.65    0.000    0.000       11        9     2035  Maize_short_Cahul_22May_NonOptimum_85_MOHC.PRM
  Tot(56)       22        5     2036     38.7    735.9   1747.1   472.00      0.0     37.7      1.0      1.0      0.0     75.6       15    156.3    127.5       74     0.000     0.000     0.000     0.000       87        0       42       25        0       37       19     6.195       25     24.0    1.484   -9.900     0.65    0.000    0.000       11        9     2036  Maize_short_Cahul_22May_NonOptimum_85_MOHC.PRM
  Tot(57)       22        5     2037    138.2    585.7   1438.1   476.00      0.0    124.8     13.4      0.0      0.0     93.5       28    216.9    173.8       84     0.000     0.000     0.000     0.000      107        0       42       25        5       32        9    11.086       46     40.7    4.507   -9.900     1.45    0.000    0.000       11        9     2037  Maize_short_Cahul_22May_NonOptimum_85_MOHC.PRM
  Tot(58)       22        5     2038    118.7    626.1   1661.7   481.00      0.0    116.1      2.6      4.1      0.0    120.3       37    207.2    165.0       73     0.000     0.000     0.000     0.000       95        0       42       25        2       23       22     9.198       37     31.6    2.906   -9.900     0.90    0.000    0.000       11        9     2038  Maize_short_Cahul_22May_NonOptimum_85_MOHC.PRM
  Tot(59)       22        5     2039     75.9    722.9   1734.7   485.00      0.0     75.6      0.3      0.0      0.0    109.4       22    162.1    131.9       75     0.000     0.000     0.000     0.000       87        0       42       25        1       36       19     6.643       26     23.0    1.531   -9.900     0.57    0.000    0.000       11        9     2039  Maize_short_Cahul_22May_NonOptimum_85_MOHC.PRM
  Tot(60)       22        5     2040     25.6    758.3   1757.9   489.00      0.0     25.6      0.0      0.0      0.0     68.2       12    151.4    124.7       81     0.000     0.000     0.000     0.000       93        0       42       25        0       40       16     6.185       25     29.4    1.817   -9.900     0.83    0.000    0.000       11        9     2040  Maize_short_Cahul_22May_NonOptimum_85_MOHC.PRM
  Tot(61)       22        5     2041     65.7    781.6   1704.4   494.00      0.0     64.8      0.9      0.0      0.0     97.3       19    162.3    131.5       69     0.000     0.000     0.000     0.000       83        0       42       25        2       34       21     6.061       24      5.3    0.320   -9.900     0.12    0.000    0.000       11        9     2041  Maize_short_Cahul_22May_NonOptimum_85_MOHC.PRM
  Tot(62)       22        5     2042    202.3    633.8   1564.3   499.00      0.0    140.5     61.8     58.2      0.0     98.2       28    195.1    155.0       75     0.000     0.000     0.000     0.000       93        0       42       25        1       24       20     8.847       35     29.8    2.633   -9.900     0.92    0.000    0.000       11        9     2042  Maize_short_Cahul_22May_NonOptimum_85_MOHC.PRM
  Tot(63)       22        5     2043     26.8    850.3   1802.1   504.00      0.0     26.8      0.0      0.0      0.0     68.3       10    141.2    117.7       81     0.000     0.000     0.000     0.000       94        0       42       25        0       45       16     4.887       19     22.7    1.110   -9.900     0.57    0.000    0.000       11        9     2043  Maize_short_Cahul_22May_NonOptimum_85_MOHC.PRM
  Tot(64)       22        5     2044     75.4    659.4   1660.9   508.00      0.0     75.3      0.1      0.8      0.0    103.3       27    178.1    141.6       73     0.000     0.000     0.000     0.000       89        0       42       25        1       27       21     7.831       31     25.7    2.014   -9.900     0.72    0.000    0.000       11        9     2044  Maize_short_Cahul_22May_NonOptimum_85_MOHC.PRM
  Tot(65)       22        5     2045    149.7    645.6   1542.2   513.00      0.0    136.4     13.3      0.0      0.0    122.0       32    179.1    143.5       72     0.000     0.000     0.000     0.000      107        0       42       25        2       30       15     7.941       32     40.1    3.182   -9.900     1.06    0.000    0.000       11        9     2045  Maize_short_Cahul_22May_NonOptimum_85_MOHC.PRM
  Tot(66)       22        5     2046    129.8    656.8   1644.1   519.00      0.0    113.6     16.2     24.0      0.0    114.7       29    175.1    140.6       73     0.000     0.000     0.000     0.000       89        0       42       25        1       30       20     7.628       31     25.9    1.976   -9.900     0.70    0.000    0.000       11        9     2046  Maize_short_Cahul_22May_NonOptimum_85_MOHC.PRM
  Tot(67)       22        5     2047     35.4    758.5   1758.0   524.00      0.0     35.1      0.3      0.0      0.0     76.7       14    150.1    123.2       77     0.000     0.000     0.000     0.000       88        0       42       25        0       39       18     5.928       24     22.2    1.317   -9.900     0.60    0.000    0.000       11        9     2047  Maize_short_Cahul_22May_NonOptimum_85_MOHC.PRM
  Tot(68)       22        5     2048     69.0    686.1   1715.4   529.00      0.0     65.0      4.0      1.7      0.0     92.2       22    173.6    139.1       73     0.000     0.000     0.000     0.000       88        0       42       25        0       30       20     7.617       30     24.8    1.891   -9.900     0.72    0.000    0.000       11        9     2048  Maize_short_Cahul_22May_NonOptimum_85_MOHC.PRM
  Tot(69)       22        5     2049     77.3    725.6   1646.9   535.00      0.0     76.9      0.4      0.0      0.0     99.7       21    164.0    132.7       72     0.000     0.000     0.000     0.000       84        0       42       25        1       34       20     6.362       26     12.2    0.777   -9.900     0.32    0.000    0.000       11        9     2049  Maize_short_Cahul_22May_NonOptimum_85_MOHC.PRM
  Tot(70)       22        5     2050     80.8    682.4   1729.0   541.00      0.0     79.9      0.9      2.3      0.0     97.8       24    190.9    153.3       76     0.000     0.000     0.000     0.000       94        0       42       25        1       29       19     8.800       35     30.9    2.717   -9.900     0.95    0.000    0.000       11        9     2050  Maize_short_Cahul_22May_NonOptimum_85_MOHC.PRM
  Tot(71)       22        5     2051     41.6    676.6   1637.1   546.00      0.0     38.4      3.2      3.1      0.0     70.2       17    162.3    130.9       73     0.000     0.000     0.000     0.000       86        0       42       25        2       33       20     6.842       27      4.7    0.322   -9.900     0.14    0.000    0.000       11        9     2051  Maize_short_Cahul_22May_NonOptimum_85_MOHC.PRM
  Tot(72)       22        5     2052    103.0    717.5   1659.9   552.00      0.0    102.6      0.4      0.0      0.0    126.9       27    159.5    129.1       73     0.000     0.000     0.000     0.000       86        0       42       25        1       34       20     6.577       26     22.9    1.506   -9.900     0.56    0.000    0.000       11        9     2052  Maize_short_Cahul_22May_NonOptimum_85_MOHC.PRM
  Tot(73)       22        5     2053    121.2    667.3   1715.7   558.00      0.0    116.9      4.3      6.4      0.0    127.4       33    173.6    138.8       72     0.000     0.000     0.000     0.000       87        0       42       25        1       29       21     7.497       30     23.8    1.781   -9.900     0.61    0.000    0.000       11        9     2053  Maize_short_Cahul_22May_NonOptimum_85_MOHC.PRM
  Tot(74)       22        5     2054    154.4    661.7   1710.1   564.00      0.0    141.2     13.2     24.3      0.0    118.2       29    166.1    134.0       71     0.000     0.000     0.000     0.000       89        0       42       25        1       33       20     6.914       28     17.2    1.190   -9.900     0.44    0.000    0.000       11        9     2054  Maize_short_Cahul_22May_NonOptimum_85_MOHC.PRM
  Tot(75)       22        5     2055     63.7    716.6   1677.0   571.00      0.0     63.5      0.2      0.0      0.0     95.4       21    162.6    131.2       72     0.000     0.000     0.000     0.000       84        0       42       25        2       33       20     6.567       26     20.8    1.367   -9.900     0.55    0.000    0.000       11        9     2055  Maize_short_Cahul_22May_NonOptimum_85_MOHC.PRM
  Tot(76)       22        5     2056    133.7    628.7   1619.9   577.00      0.0    121.2     12.5     17.3      0.0    110.4       35    200.6    159.2       70     0.000     0.000     0.000     0.000      107        0       42       25        2       24       24     9.263       37     27.1    2.507   -9.900     0.81    0.000    0.000       11        9     2056  Maize_short_Cahul_22May_NonOptimum_85_MOHC.PRM
  Tot(77)       22        5     2057    168.3    643.2   1633.6   583.00      0.0    163.4      4.9      1.7      0.0    140.3       41    205.7    162.5       76     0.000     0.000     0.000     0.000       94        0       42       25        1       21       20     9.445       37     30.7    2.903   -9.900     0.86    0.000    0.000       11        9     2057  Maize_short_Cahul_22May_NonOptimum_85_MOHC.PRM
  Tot(78)       22        5     2058     70.2    760.0   1804.9   590.00      0.0     68.1      2.1      7.5      0.0     94.7       17    153.4    125.6       77     0.000     0.000     0.000     0.000       87        0       42       25        2       38       18     6.152       24     23.2    1.425   -9.900     0.59    0.000    0.000       11        9     2058  Maize_short_Cahul_22May_NonOptimum_85_MOHC.PRM
  Tot(79)       22        5     2059    120.0    638.7   1746.6   597.00      0.0    120.0      0.0      0.0      0.0    119.1       37    218.3    171.7       75     0.000     0.000     0.000     0.000       98        0       42       25        1       17       20    10.372       41     34.4    3.571   -9.900     1.07    0.000    0.000       11        9     2059  Maize_short_Cahul_22May_NonOptimum_85_MOHC.PRM
  Tot(80)       22        5     2060     81.4    826.8   1891.5   604.00      0.0     81.3      0.1      0.0      0.0    109.1       17    146.9    121.0       77     0.000     0.000     0.000     0.000       85        0       42       25        0       40       17     5.465       22     15.9    0.867   -9.900     0.35    0.000    0.000       11        9     2060  Maize_short_Cahul_22May_NonOptimum_85_MOHC.PRM
  Tot(81)       22        5     2061     38.0    721.4   1761.3   611.00      0.0     36.3      1.7      6.6      0.0     67.3       14    155.4    126.2       72     0.000     0.000     0.000     0.000       85        0       42       25        1       35       20     6.311       25      7.7    0.485   -9.900     0.23    0.000    0.000       11        9     2061  Maize_short_Cahul_22May_NonOptimum_85_MOHC.PRM
  Tot(82)       22        5     2062     40.3    757.9   1842.5   618.00      0.0     40.2      0.1      0.0      0.0     72.5       14    158.6    128.7       72     0.000     0.000     0.000     0.000       85        0       42       25        0       35       20     6.232       25     19.4    1.210   -9.900     0.56    0.000    0.000       11        9     2062  Maize_short_Cahul_22May_NonOptimum_85_MOHC.PRM
  Tot(83)       22        5     2063     52.1    669.3   1723.3   625.00      0.0     52.1      0.0      0.0      0.0     80.3       21    173.0    138.4       71     0.000     0.000     0.000     0.000       89        0       42       25        1       29       20     7.739       31     23.7    1.836   -9.900     0.74    0.000    0.000       11        9     2063  Maize_short_Cahul_22May_NonOptimum_85_MOHC.PRM
  Tot(84)       22        5     2064     65.8    753.7   1897.0   632.00      0.0     65.6      0.2      0.0      0.0     91.6       17    156.1    127.6       76     0.000     0.000     0.000     0.000       89        0       42       25        0       37       18     6.444       25     24.0    1.546   -9.900     0.67    0.000    0.000       11        9     2064  Maize_short_Cahul_22May_NonOptimum_85_MOHC.PRM
  Tot(85)       22        5     2065     33.9    657.0   1705.4   639.00      0.0     33.9      0.0      0.0      0.0     70.4       17    166.3    134.1       74     0.000     0.000     0.000     0.000       92        0       42       25        0       32       19     7.814       31     29.0    2.265   -9.900     0.96    0.000    0.000       11        9     2065  Maize_short_Cahul_22May_NonOptimum_85_MOHC.PRM
  Tot(86)       22        5     2066     18.7    750.8   1833.4   647.00      0.0     18.7      0.0      0.0      0.0     61.6       11    152.3    124.3       74     0.000     0.000     0.000     0.000       90        0       42       25        0       37       18     6.224       25     17.9    1.112   -9.900     0.52    0.000    0.000       11        9     2066  Maize_short_Cahul_22May_NonOptimum_85_MOHC.PRM
  Tot(87)       22        5     2067     81.2    767.7   1881.6   654.00      0.0     80.7      0.5      0.0      0.0    113.2       22    162.2    131.5       71     0.000     0.000     0.000     0.000       85        0       42       25        0       35       20     6.324       25      9.9    0.629   -9.900     0.23    0.000    0.000       11        9     2067  Maize_short_Cahul_22May_NonOptimum_85_MOHC.PRM
  Tot(88)       22        5     2068    111.6    695.0   1796.8   662.00      0.0    109.6      2.0      0.0      0.0    116.9       32    212.6    167.8       73     0.000     0.000     0.000     0.000       97        0       42       25        0       18       21    10.083       40     33.3    3.362   -9.900     1.03    0.000    0.000       11        9     2068  Maize_short_Cahul_22May_NonOptimum_85_MOHC.PRM
  Tot(89)       22        5     2069    123.3    679.6   1801.3   669.00      0.0    111.7     11.6     12.5      0.0    111.2       30    199.3    157.8       74     0.000     0.000     0.000     0.000       92        0       42       25        1       24       20     8.916       35     16.9    1.506   -9.900     0.49    0.000    0.000       11        9     2069  Maize_short_Cahul_22May_NonOptimum_85_MOHC.PRM
  Tot(90)       22        5     2070     16.0    772.8   1849.7   677.00      0.0     16.0      0.0      0.0      0.0     57.6       11    153.2    124.7       72     0.000     0.000     0.000     0.000       87        0       42       25        0       36       19     6.209       25      4.6    0.286   -9.900     0.14    0.000    0.000       11        9     2070  Maize_short_Cahul_22May_NonOptimum_85_MOHC.PRM
  Tot(91)       22        5     2071     79.3    777.1   1862.6   685.00      0.0     74.6      4.7      0.0      0.0     79.6       14    145.8    119.9       76     0.000     0.000     0.000     0.000       87        0       42       25        0       40       18     5.467       22     24.2    1.321   -9.900     0.65    0.000    0.000       11        9     2071  Maize_short_Cahul_22May_NonOptimum_85_MOHC.PRM
  Tot(92)       22        5     2072     57.5    770.0   1858.3   693.00      0.0     55.6      1.9      4.0      0.0     85.9       17    159.4    129.1       73     0.000     0.000     0.000     0.000       85        0       42       25        0       35       20     6.464       26      1.9    0.120   -9.900     0.05    0.000    0.000       11        9     2072  Maize_short_Cahul_22May_NonOptimum_85_MOHC.PRM
  Tot(93)       22        5     2073    113.3    700.2   1752.8   701.00      0.0    110.6      2.7      0.0      0.0    130.3       33    184.2    146.5       72     0.000     0.000     0.000     0.000       89        0       42       25        1       27       21     7.991       32     25.6    2.049   -9.900     0.69    0.000    0.000       11        9     2073  Maize_short_Cahul_22May_NonOptimum_85_MOHC.PRM
  Tot(94)       22        5     2074     38.5    796.7   1868.2   709.00      0.0     38.5      0.0      0.0      0.0     79.8       14    149.2    122.0       74     0.000     0.000     0.000     0.000       85        0       42       25        0       38       19     5.769       23      1.9    0.110   -9.900     0.05    0.000    0.000       11        9     2074  Maize_short_Cahul_22May_NonOptimum_85_MOHC.PRM
  Tot(95)       22        5     2075     30.7    766.9   1888.0   717.00      0.0     30.7      0.0      0.0      0.0     73.6       13    149.4    122.8       78     0.000     0.000     0.000     0.000       92        0       42       25        0       39       17     6.085       24     26.4    1.607   -9.900     0.74    0.000    0.000       11        9     2075  Maize_short_Cahul_22May_NonOptimum_85_MOHC.PRM
  Tot(96)       22        5     2076     55.6    740.0   1789.9   725.00      0.0     53.6      2.0      6.5      0.0     81.5       17    165.7    133.8       72     0.000     0.000     0.000     0.000       87        0       42       25        3       33       20     7.006       28      5.4    0.377   -9.900     0.15    0.000    0.000       11        9     2076  Maize_short_Cahul_22May_NonOptimum_85_MOHC.PRM
  Tot(97)       22        5     2077     58.8    714.5   1820.3   733.00      0.0     58.5      0.3      0.0      0.0     86.1       19    164.0    132.3       72     0.000     0.000     0.000     0.000      107        0       42       25        0       33       20     7.212       29     21.7    1.562   -9.900     0.62    0.000    0.000       11        9     2077  Maize_short_Cahul_22May_NonOptimum_85_MOHC.PRM
  Tot(98)       22        5     2078    103.9    689.3   1865.5   742.00      0.0    103.5      0.4      1.2      0.0    123.7       32    185.6    147.7       73     0.000     0.000     0.000     0.000       96        0       42       25        0       25       21     8.968       36     11.5    1.030   -9.900     0.34    0.000    0.000       11        9     2078  Maize_short_Cahul_22May_NonOptimum_85_MOHC.PRM
  Tot(99)       22        5     2079     28.5    752.9   1869.4   750.00      0.0     28.5      0.0      0.0      0.0     68.3       12    146.9    120.5       78     0.000     0.000     0.000     0.000       88        0       42       25        2       40       17     5.804       23     21.7    1.258   -9.900     0.59    0.000    0.000       11        9     2079  Maize_short_Cahul_22May_NonOptimum_85_MOHC.PRM
 Tot(100)       22        5     2080     97.0    789.9   1953.4   758.00      0.0     97.0      0.0      0.0      0.0    126.1       22    169.4    139.4       82     0.000     0.000     0.000     0.000       95        0       42       25        0       39       16     6.852       27     27.9    1.912   -9.900     0.65    0.000    0.000       11        9     2080  Maize_short_Cahul_22May_NonOptimum_85_MOHC.PRM
 Tot(101)       22        5     2081     90.7    740.4   1949.2   767.00      0.0     90.2      0.5      0.0      0.0    117.7       25    175.2    141.2       73     0.000     0.000     0.000     0.000       90        0       42       25        0       31       19     7.502       30      1.3    0.100   -9.900     0.03    0.000    0.000       11        9     2081  Maize_short_Cahul_22May_NonOptimum_85_MOHC.PRM
 Tot(102)       22        5     2082     27.3    788.3   1974.2   775.00      0.0     27.1      0.2      0.0      0.0     65.4       12    158.9    129.0       73     0.000     0.000     0.000     0.000       87        0       42       25        0       35       19     6.459       26     -9.9    0.000   -9.900     0.00    0.000    0.000       11        9     2082  Maize_short_Cahul_22May_NonOptimum_85_MOHC.PRM
 Tot(103)       22        5     2083     55.2    810.0   1909.8   784.00      0.0     48.5      6.7      6.2      0.0     82.5       14    146.2    119.5       74     0.000     0.000     0.000     0.000       83        0       42       25        0       38       19     5.504       22      0.7    0.040   -9.900     0.02    0.000    0.000       11        9     2083  Maize_short_Cahul_22May_NonOptimum_85_MOHC.PRM
 Tot(104)       22        5     2084    155.8    660.0   1752.4   792.00      0.0    115.0     40.8     63.3      0.0     74.2       21    188.4    149.6       74     0.000     0.000     0.000     0.000       92        0       42       25        1       25       20     8.891       36      2.5    0.222   -9.900     0.09    0.000    0.000       11        9     2084  Maize_short_Cahul_22May_NonOptimum_85_MOHC.PRM
 Tot(105)       22        5     2085     66.6    807.4   2006.3   801.00      0.0     66.6      0.0      0.0      0.0    107.8       18    152.5    124.9       77     0.000     0.000     0.000     0.000       89        0       42       25        0       37       18     6.214       25      0.5    0.031   -9.900     0.01    0.000    0.000       11        9     2085  Maize_short_Cahul_22May_NonOptimum_85_MOHC.PRM
 Tot(106)       22        5     2086     53.6    738.4   1892.7   810.00      0.0     53.5      0.1      0.0      0.0     87.7       18    160.0    129.1       74     0.000     0.000     0.000     0.000       89        0       42       25        0       33       19     6.937       28     24.6    1.705   -9.900     0.71    0.000    0.000       11        9     2086  Maize_short_Cahul_22May_NonOptimum_85_MOHC.PRM
 Tot(107)       22        5     2087     28.5    837.7   1966.9   818.00      0.0     28.5      0.0      0.0      0.0     72.9       11    144.0    119.0       78     0.000     0.000     0.000     0.000       95        0       42       25        0       42       16     5.415       22     11.5    0.623   -9.900     0.29    0.000    0.000       11        9     2087  Maize_short_Cahul_22May_NonOptimum_85_MOHC.PRM
 Tot(108)       22        5     2088     36.6    864.4   1936.6   827.00      0.0     36.2      0.4      0.0      0.0     71.2       10    153.7    127.8       84     0.000     0.000     0.000     0.000      107        0       42       25        0       45       13     5.995       24     12.2    0.731   -9.900     0.33    0.000    0.000       11        9     2088  Maize_short_Cahul_22May_NonOptimum_85_MOHC.PRM
 Tot(109)       22        5     2089     19.4    844.3   1986.7   836.00      0.0     19.4      0.0      0.0      0.0     57.1        9    150.8    124.2       76     0.000     0.000     0.000     0.000       87        0       42       25        0       39       18     5.523       22      1.6    0.090   -9.900     0.04    0.000    0.000       11        9     2089  Maize_short_Cahul_22May_NonOptimum_85_MOHC.PRM
 Tot(110)       22        5     2090     93.0    719.4   1860.6   845.00      0.0     85.9      7.1     16.6      0.0     98.5       23    168.2    135.0       70     0.000     0.000     0.000     0.000       86        0       42       25        0       31       21     6.871       28      0.4    0.031   -9.900     0.01    0.000    0.000       11        9     2090  Maize_short_Cahul_22May_NonOptimum_85_MOHC.PRM
 Tot(111)       22        5     2091     38.9    864.1   1992.2   854.00      0.0     38.1      0.8      0.0      0.0     76.6       12    145.9    119.8       75     0.000     0.000     0.000     0.000       83        0       42       25        0       39       18     5.170       21      2.4    0.124   -9.900     0.06    0.000    0.000       11        9     2091  Maize_short_Cahul_22May_NonOptimum_85_MOHC.PRM
 Tot(112)       22        5     2092     12.2    861.1   1989.0   863.00      0.0     12.2      0.0      0.0      0.0     55.0        8    147.7    121.9       78     0.000     0.000     0.000     0.000       91        0       42       25        0       40       16     5.677       23      1.9    0.110   -9.900     0.05    0.000    0.000       11        9     2092  Maize_short_Cahul_22May_NonOptimum_85_MOHC.PRM
 Tot(113)       22        5     2093     31.4    860.8   2014.6   872.00      0.0     31.4      0.0      0.0      0.0     72.7       12    148.5    121.2       71     0.000     0.000     0.000     0.000       85        0       42       25        0       37       19     5.431       22     -9.9    0.000   -9.900     0.00    0.000    0.000       11        9     2093  Maize_short_Cahul_22May_NonOptimum_85_MOHC.PRM
 Tot(114)       22        5     2094     13.6    864.8   2023.7   881.00      0.0     13.6      0.0      0.0      0.0     58.2        9    145.0    119.9       80     0.000     0.000     0.000     0.000       92        0       42       25        0       42       16     5.526       23     16.1    0.888   -9.900     0.44    0.000    0.000       11        9     2094  Maize_short_Cahul_22May_NonOptimum_85_MOHC.PRM
 Tot(115)       22        5     2095     14.2    849.8   2004.0   890.00      0.0     14.2      0.0      0.0      0.0     56.9        9    145.5    119.3       74     0.000     0.000     0.000     0.000       86        0       42       25        0       39       19     5.351       22      0.9    0.047   -9.900     0.02    0.000    0.000       11        9     2095  Maize_short_Cahul_22May_NonOptimum_85_MOHC.PRM
 Tot(116)       22        5     2096     55.6    804.0   2016.5   899.00      0.0     53.3      2.3      2.2      0.0     92.0       16    153.7    125.6       76     0.000     0.000     0.000     0.000       89        0       42       25        0       37       18     6.252       26     12.3    0.770   -9.900     0.32    0.000    0.000       11        9     2096  Maize_short_Cahul_22May_NonOptimum_85_MOHC.PRM
 Tot(117)       22        5     2097     52.7    760.5   1927.3   908.00      0.0     52.7      0.0      0.0      0.0     92.4       17    152.1    124.1       76     0.000     0.000     0.000     0.000       88        0       42       25        0       37       18     6.139       25      5.2    0.320   -9.900     0.13    0.000    0.000       11        9     2097  Maize_short_Cahul_22May_NonOptimum_85_MOHC.PRM
 Tot(118)       22        5     2098     44.7    789.3   1975.8   917.00      0.0     44.7      0.0      0.0      0.0     81.1       15    150.2    122.3       73     0.000     0.000     0.000     0.000       85        0       42       25        0       37       19     5.762       24      0.3    0.019   -9.900     0.01    0.000    0.000       11        9     2098  Maize_short_Cahul_22May_NonOptimum_85_MOHC.PRM
 Tot(119)       22        5     2099    105.5    694.6   1903.1   927.00      0.0    102.2      3.3      3.1      0.0     94.2       29    225.7    177.1       76     0.000     0.000     0.000     0.000      101        0       42       25        0       12       20    10.631       44     10.1    1.070   -9.900     0.34    0.000    0.000       11        9     2099  Maize_short_Cahul_22May_NonOptimum_85_MOHC.PRM
