AquaCrop 7.0 (August 2022) - Output created on (date) : 24-11-2022   at (time) : 10:38:08

    RunNr     Day1   Month1    Year1     Rain      ETo       GD     CO2      Irri   Infilt   Runoff    Drain   Upflow        E     E/Ex       Tr      TrW   Tr/Trx    SaltIn   SaltOut    SaltUp  SaltProf     Cycle   SaltStr  FertStr  WeedStr  TempStr   ExpStr   StoStr  BioMass  Brelative   HI    Y(dry)  Y(fresh)    WPet      Bin     Bout     DayN   MonthN    YearN
                                           mm       mm  degC.day    ppm        mm       mm       mm       mm       mm       mm        %       mm       mm        %    ton/ha    ton/ha    ton/ha    ton/ha      days       %        %        %        %        %        %    ton/ha        %       %    ton/ha   ton/ha    kg/m3   ton/ha   ton/ha
   Tot(1)        7        5     1981    330.3    462.9   1198.4   340.11      0.0    283.1     47.2     56.3      0.0    109.4       56    275.1    275.5      100     0.000     0.000     0.000     0.000      107        0        0        0       13        1        0    20.792       97     40.0    8.317   -9.900     2.16    0.000    0.000       27        8     1981  Maize_Short_Soroca_7May_Optimum_85_NCC.PRM
   Tot(2)        7        5     1982    276.4    461.1   1144.9   341.22      0.0    241.0     35.4     37.5      0.0     91.0       42    247.8    245.9      100     0.000     0.000     0.000     0.000      107        0        0        0       15        2        0    20.015       96     40.0    8.006   -9.900     2.36    0.000    0.000       27        8     1982  Maize_Short_Soroca_7May_Optimum_85_NCC.PRM
   Tot(3)        7        5     1983    225.7    446.3   1210.8   342.84      0.0    220.5      5.2      1.0      0.0     89.5       45    244.5    245.0      100     0.000     0.000     0.000     0.000      107        0        0        0        9        2        0    20.424       96     40.0    8.174   -9.900     2.45    0.000    0.000       27        8     1983  Maize_Short_Soroca_7May_Optimum_85_NCC.PRM
   Tot(4)        7        5     1984    347.7    420.8   1026.2   344.40      0.0    328.6     19.1     25.4      0.0    144.0       85    231.4    232.8      100     0.000     0.000     0.000     0.000      107        0        0        0       20        0        0    19.009       98     40.0    7.604   -9.900     2.03    0.000    0.000       27        8     1984  Maize_Short_Soroca_7May_Optimum_85_NCC.PRM
   Tot(5)        7        5     1985    364.9    454.7   1143.8   345.87      0.0    324.5     40.4     56.7      0.0    131.4       68    253.5    250.6      100     0.000     0.000     0.000     0.000      107        0        0        0       15        0        0    19.959       98     40.0    7.984   -9.900     2.07    0.000    0.000       27        8     1985  Maize_Short_Soroca_7May_Optimum_85_NCC.PRM
   Tot(6)        7        5     1986    164.7    525.3   1219.4   347.19      0.0    164.3      0.4      0.0      0.0     97.0       40    259.0    260.2       92     0.000     0.000     0.000     0.000      107        0        0        0       12        8        5    17.926       86     40.0    7.177   -9.900     2.02    0.000    0.000       27        8     1986  Maize_Short_Soroca_7May_Optimum_85_NCC.PRM
   Tot(7)        7        5     1987    273.7    465.1   1100.2   348.98      0.0    263.6     10.1     12.9      0.0    131.5       71    274.3    273.3      100     0.000     0.000     0.000     0.000      107        0        0        0       19        6        0    19.794       96     40.4    8.000   -9.900     1.97    0.000    0.000       27        8     1987  Maize_Short_Soroca_7May_Optimum_85_NCC.PRM
   Tot(8)        7        5     1988    304.7    440.0   1217.4   351.45      0.0    290.1     14.6     30.8      0.0    131.0       80    283.6    287.0      100     0.000     0.000     0.000     0.000      107        0        0        0       10        1        0    21.617       98     40.0    8.653   -9.900     2.09    0.000    0.000       27        8     1988  Maize_Short_Soroca_7May_Optimum_85_NCC.PRM
   Tot(9)        7        5     1989    282.2    464.6   1130.1   352.89      0.0    262.4     19.8     25.4      0.0    101.1       53    275.0    273.7      100     0.000     0.000     0.000     0.000      107        0        0        0       15        2        0    20.739       97     40.1    8.313   -9.900     2.21    0.000    0.000       27        8     1989  Maize_Short_Soroca_7May_Optimum_85_NCC.PRM
  Tot(10)        7        5     1990    185.9    477.8   1101.1   354.16      0.0    184.2      1.7      2.5      0.0    113.8       58    266.9    266.9       95     0.000     0.000     0.000     0.000      107        0        0        0       18        3        4    19.765       91     40.0    7.913   -9.900     2.08    0.000    0.000       27        8     1990  Maize_Short_Soroca_7May_Optimum_85_NCC.PRM
  Tot(11)        7        5     1991    456.1    412.7   1129.9   355.48      0.0    403.6     52.5     46.9      0.0    128.5       85    271.1    271.6      100     0.000     0.000     0.000     0.000      107        0        0        0       20        0        0    22.044       98     40.0    8.819   -9.900     2.21    0.000    0.000       27        8     1991  Maize_Short_Soroca_7May_Optimum_85_NCC.PRM
  Tot(12)        7        5     1992    184.4    507.5   1204.4   356.27      0.0    182.6      1.8      4.3      0.0    130.3       69    268.1    268.2       83     0.000     0.000     0.000     0.000      107        0        0        0       16        5       12    17.662       78     39.7    7.016   -9.900     1.76    0.000    0.000       27        8     1992  Maize_Short_Soroca_7May_Optimum_85_NCC.PRM
  Tot(13)        7        5     1993    225.5    480.7   1127.5   356.95      0.0    219.8      5.7      9.9      0.0    124.3       62    266.5    266.2       99     0.000     0.000     0.000     0.000      107        0        0        0       14        1        1    19.881       97     40.0    7.957   -9.900     2.04    0.000    0.000       27        8     1993  Maize_Short_Soroca_7May_Optimum_85_NCC.PRM
  Tot(14)        7        5     1994    261.0    521.2   1199.0   358.63      0.0    230.3     30.7     13.8      0.0    119.5       54    248.1    249.0       83     0.000     0.000     0.000     0.000      107        0        0        0       13        7       12    16.089       73     39.6    6.366   -9.900     1.73    0.000    0.000       27        8     1994  Maize_Short_Soroca_7May_Optimum_85_NCC.PRM
  Tot(15)        7        5     1995    305.1    494.6   1256.9   360.62      0.0    274.9     30.2     13.8      0.0    116.1       57    305.4    304.4      100     0.000     0.000     0.000     0.000      107        0        0        0        8        3        0    22.157       96     40.1    8.884   -9.900     2.11    0.000    0.000       27        8     1995  Maize_Short_Soroca_7May_Optimum_85_NCC.PRM
  Tot(16)        7        5     1996    285.8    501.1   1244.3   362.37      0.0    267.2     18.6      8.4      0.0     98.7       42    272.6    272.1      100     0.000     0.000     0.000     0.000      107        0        0        0       11        3        0    20.653       95     40.0    8.263   -9.900     2.23    0.000    0.000       27        8     1996  Maize_Short_Soroca_7May_Optimum_85_NCC.PRM
  Tot(17)        7        5     1997    299.6    455.8   1162.2   363.47      0.0    285.4     14.2      0.0      0.0    100.3       49    256.7    256.6      100     0.000     0.000     0.000     0.000      107        0        0        0       14        2        0    21.442       96     40.0    8.577   -9.900     2.40    0.000    0.000       27        8     1997  Maize_Short_Soroca_7May_Optimum_85_NCC.PRM
  Tot(18)        7        5     1998    308.7    445.2   1198.7   366.50      0.0    287.4     21.3      4.9      0.0    123.3       70    271.9    271.2      100     0.000     0.000     0.000     0.000      107        0        0        0       17        1        0    21.071       97     40.0    8.429   -9.900     2.13    0.000    0.000       27        8     1998  Maize_Short_Soroca_7May_Optimum_85_NCC.PRM
  Tot(19)        7        5     1999    155.2    512.9   1310.0   368.14      0.0    155.2      0.0      0.0      0.0     95.6       41    266.2    267.5       90     0.000     0.000     0.000     0.000      107        0        0        0       10       13        7    18.819       81     40.4    7.610   -9.900     2.10    0.000    0.000       27        8     1999  Maize_Short_Soroca_7May_Optimum_85_NCC.PRM
  Tot(20)        7        5     2000    240.2    521.6   1223.8   369.41      0.0    230.6      9.6      0.0      0.0     90.6       37    285.6    286.2      100     0.000     0.000     0.000     0.000      107        0        0        0       13        5        0    20.529       94     40.0    8.214   -9.900     2.18    0.000    0.000       27        8     2000  Maize_Short_Soroca_7May_Optimum_85_NCC.PRM
  Tot(21)        7        5     2001    255.6    491.7   1222.5   371.07      0.0    247.3      8.3     18.7      0.0    121.2       66    307.8    306.8       97     0.000     0.000     0.000     0.000      107        0        0        0       16        1        3    21.609       94     40.0    8.639   -9.900     2.01    0.000    0.000       27        8     2001  Maize_Short_Soroca_7May_Optimum_85_NCC.PRM
  Tot(22)        7        5     2002    365.4    509.4   1309.6   373.16      0.0    331.0     34.4      0.0      0.0    127.4       58    304.0    303.1       99     0.000     0.000     0.000     0.000      107        0        0        0       10       16        1    21.326       92     40.8    8.711   -9.900     2.02    0.000    0.000       27        8     2002  Maize_Short_Soroca_7May_Optimum_85_NCC.PRM
  Tot(23)        7        5     2003    329.8    556.2   1316.9   375.80      0.0    274.8     55.0      3.2      0.0     87.3       30    282.5    281.0      100     0.000     0.000     0.000     0.000      107        0        0        0        7        9        0    20.739       91     40.0    8.296   -9.900     2.24    0.000    0.000       27        8     2003  Maize_Short_Soroca_7May_Optimum_85_NCC.PRM
  Tot(24)        7        5     2004    239.4    487.9   1103.3   377.49      0.0    217.8     21.6      0.0      0.0     72.2       31    266.1    268.1      100     0.000     0.000     0.000     0.000      107        0        0        0       19       14        0    20.183       90     40.2    8.114   -9.900     2.40    0.000    0.000       27        8     2004  Maize_Short_Soroca_7May_Optimum_85_NCC.PRM
  Tot(25)        7        5     2005    262.5    469.1   1193.2   379.80      0.0    243.3     19.2     22.7      0.0    108.8       56    282.0    281.1      100     0.000     0.000     0.000     0.000      107        0        0        0       11        4        0    21.900       96     40.1    8.782   -9.900     2.25    0.000    0.000       27        8     2005  Maize_Short_Soroca_7May_Optimum_85_NCC.PRM
  Tot(26)        7        5     2006    315.6    495.5   1200.9   381.90      0.0    301.7     13.9     21.8      0.0    141.7       77    304.6    306.6       96     0.000     0.000     0.000     0.000      107        0        0        0       15        5        3    21.063       92     40.3    8.481   -9.900     1.90    0.000    0.000       27        8     2006  Maize_Short_Soroca_7May_Optimum_85_NCC.PRM
  Tot(27)        7        5     2007    152.4    612.6   1444.4   383.77      0.0    152.1      0.3      0.0      0.0    125.1       36    232.9    233.0       83     0.000     0.000     0.000     0.000      107        0        0        0        3       24       12    14.395       61     40.4    5.816   -9.900     1.62    0.000    0.000       27        8     2007  Maize_Short_Soroca_7May_Optimum_85_NCC.PRM
  Tot(28)        7        5     2008    341.8    530.8   1250.9   385.59      0.0    280.9     60.9      0.0      0.0    111.5       51    324.8    323.2       99     0.000     0.000     0.000     0.000      107        0        0        0        8       14        0    21.776       93     40.6    8.844   -9.900     2.03    0.000    0.000       27        8     2008  Maize_Short_Soroca_7May_Optimum_85_NCC.PRM
  Tot(29)        7        5     2009    220.9    551.9   1276.6   387.37      0.0    219.1      1.8      1.4      0.0    136.6       60    298.5    299.9       89     0.000     0.000     0.000     0.000      107        0        0        0       11        4       10    19.274       83     39.9    7.685   -9.900     1.77    0.000    0.000       27        8     2009  Maize_Short_Soroca_7May_Optimum_85_NCC.PRM
  Tot(30)        7        5     2010    341.4    489.0   1373.7   389.85      0.0    312.2     29.2     48.1      0.0    130.7       71    315.5    313.5       99     0.000     0.000     0.000     0.000      107        0        0        0        8        0        0    22.870       97     40.0    9.148   -9.900     2.05    0.000    0.000       27        8     2010  Maize_Short_Soroca_7May_Optimum_85_NCC.PRM
  Tot(31)        7        5     2011    187.9    543.3   1287.2   391.63      0.0    185.0      2.9      1.0      0.0     95.4       38    289.1    290.0       96     0.000     0.000     0.000     0.000      107        0        0        0        8        5        3    20.520       90     40.1    8.220   -9.900     2.14    0.000    0.000       27        8     2011  Maize_Short_Soroca_7May_Optimum_85_NCC.PRM
  Tot(32)        7        5     2012    144.1    600.6   1390.6   393.82      0.0    143.9      0.2      0.0      0.0    126.5       41    224.5    226.2       78     0.000     0.000     0.000     0.000      107        0        0        0        8       27       16    13.118       56     40.3    5.281   -9.900     1.50    0.000    0.000       27        8     2012  Maize_Short_Soroca_7May_Optimum_85_NCC.PRM
  Tot(33)        7        5     2013    224.9    523.6   1339.0   396.48      0.0    216.4      8.5     10.5      0.0    145.5       69    271.1    270.5       85     0.000     0.000     0.000     0.000      107        0        0        0        6        4       11    19.039       80     39.5    7.526   -9.900     1.81    0.000    0.000       27        8     2013  Maize_Short_Soroca_7May_Optimum_85_NCC.PRM
  Tot(34)        7        5     2014    310.9    505.5   1289.2   398.55      0.0    284.3     26.6     17.9      0.0    125.3       62    311.0    310.3      100     0.000     0.000     0.000     0.000      107        0        0        0        9        5        0    22.014       96     40.1    8.829   -9.900     2.02    0.000    0.000       27        8     2014  Maize_Short_Soroca_7May_Optimum_85_NCC.PRM
  Tot(35)        7        5     2015     53.8    613.9   1324.9   402.00      0.0     53.8      0.0      0.2      0.0     81.0       23    188.9    190.7       77     0.000     0.000     0.000     0.000       98        0        0        0        8       27       19    11.278       48     35.0    3.947   -9.900     1.47    0.000    0.000       27        8     2015  Maize_Short_Soroca_7May_Optimum_85_NCC.PRM
  Tot(36)        7        5     2016    260.0    524.9   1288.5   404.00      0.0    257.7      2.3      0.0      0.0    146.2       78    314.1    310.9       91     0.000     0.000     0.000     0.000      107        0        0        0       12        3        7    20.417       86     40.1    8.179   -9.900     1.78    0.000    0.000       27        8     2016  Maize_Short_Soroca_7May_Optimum_85_NCC.PRM
  Tot(37)        7        5     2017    198.7    557.0   1274.9   407.00      0.0    197.7      1.0      0.3      0.0    125.5       55    289.0    291.3       86     0.000     0.000     0.000     0.000      107        0        0        0       10        8       10    19.078       81     40.0    7.626   -9.900     1.84    0.000    0.000       27        8     2017  Maize_Short_Soroca_7May_Optimum_85_NCC.PRM
  Tot(38)        7        5     2018    243.9    523.5   1389.5   410.00      0.0    231.6     12.3      0.0      0.0     92.6       38    294.8    292.5      100     0.000     0.000     0.000     0.000      107        0        0        0        7        5        0    22.082       94     40.0    8.836   -9.900     2.28    0.000    0.000       27        8     2018  Maize_Short_Soroca_7May_Optimum_85_NCC.PRM
  Tot(39)        7        5     2019    283.0    528.5   1353.3   413.00      0.0    260.1     22.9     36.0      0.0    154.4       77    289.9    292.2       87     0.000     0.000     0.000     0.000      107        0        0        0        4        5       10    19.805       84     39.9    7.902   -9.900     1.78    0.000    0.000       27        8     2019  Maize_Short_Soroca_7May_Optimum_85_NCC.PRM
  Tot(40)        7        5     2020    209.7    542.9   1203.3   416.00      0.0    207.2      2.5      0.4      0.0    126.7       60    292.4    292.3       88     0.000     0.000     0.000     0.000      107        0        0        0       14        2        8    19.517       86     39.8    7.759   -9.900     1.85    0.000    0.000       27        8     2020  Maize_Short_Soroca_7May_Optimum_85_NCC.PRM
  Tot(41)        7        5     2021    216.8    525.8   1238.6   419.00      0.0    214.6      2.2      2.6      0.0    126.9       59    291.7    291.3       94     0.000     0.000     0.000     0.000      107        0        0        0        9        2        5    20.311       90     40.0    8.115   -9.900     1.94    0.000    0.000       27        8     2021  Maize_Short_Soroca_7May_Optimum_85_NCC.PRM
  Tot(42)        7        5     2022    238.9    453.0   1042.3   422.00      0.0    228.8     10.1     11.8      0.0    120.2       71    271.0    271.2      100     0.000     0.000     0.000     0.000      107        0        0        0       20        0        0    21.123       97     40.0    8.449   -9.900     2.16    0.000    0.000       27        8     2022  Maize_Short_Soroca_7May_Optimum_85_NCC.PRM
  Tot(43)        7        5     2023    204.1    465.6   1040.7   425.00      0.0    198.0      6.1      9.4      0.0    107.7       58    240.4    241.0       91     0.000     0.000     0.000     0.000      107        0        0        0       19        9        5    18.008       86     40.5    7.291   -9.900     2.09    0.000    0.000       27        8     2023  Maize_Short_Soroca_7May_Optimum_85_NCC.PRM
  Tot(44)        7        5     2024    148.1    634.7   1405.4   428.00      0.0    147.8      0.3      0.0      0.0    128.9       42    242.6    243.2       78     0.000     0.000     0.000     0.000      105        0        0        0        3       10       20    14.559       61     38.9    5.667   -9.900     1.53    0.000    0.000       27        8     2024  Maize_Short_Soroca_7May_Optimum_85_NCC.PRM
  Tot(45)        7        5     2025    279.8    495.8   1234.3   431.00      0.0    268.2     11.6     16.1      0.0    144.7       70    291.3    290.2      100     0.000     0.000     0.000     0.000      107        0        0        0        9        0        0    22.292       97     40.0    8.918   -9.900     2.05    0.000    0.000       27        8     2025  Maize_Short_Soroca_7May_Optimum_85_NCC.PRM
  Tot(46)        7        5     2026    236.7    437.5    981.1   435.00      0.0    223.1     13.6      7.7      0.0    108.9       62    234.0    232.0      100     0.000     0.000     0.000     0.000      107        0        0        0       21        6        0    19.477       96     40.3    7.844   -9.900     2.29    0.000    0.000       27        8     2026  Maize_Short_Soroca_7May_Optimum_85_NCC.PRM
  Tot(47)        7        5     2027    122.0    511.0   1045.5   438.00      0.0    109.6     12.4     29.2      0.0     92.9       49    213.0    215.8       77     0.000     0.000     0.000     0.000      107        0        0        0       25        3       16    15.022       71     39.2    5.884   -9.900     1.92    0.000    0.000       27        8     2027  Maize_Short_Soroca_7May_Optimum_85_NCC.PRM
  Tot(48)        7        5     2028    264.0    561.2   1318.0   442.00      0.0    244.8     19.2     36.9      0.0    155.3       74    275.8    275.5       81     0.000     0.000     0.000     0.000      107        0        0        0        7        5       14    18.255       77     39.5    7.201   -9.900     1.67    0.000    0.000       27        8     2028  Maize_Short_Soroca_7May_Optimum_85_NCC.PRM
  Tot(49)        7        5     2029    136.7    549.7   1188.9   445.00      0.0    134.3      2.4     13.6      0.0    120.2       55    225.9    226.5       76     0.000     0.000     0.000     0.000      107        0        0        0       15        7       20    14.553       64     39.0    5.669   -9.900     1.64    0.000    0.000       27        8     2029  Maize_Short_Soroca_7May_Optimum_85_NCC.PRM
  Tot(50)        7        5     2030    198.7    590.6   1321.8   449.00      0.0    187.0     11.7     18.3      0.0    152.9       60    228.0    227.6       72     0.000     0.000     0.000     0.000      107        0        0        0       12       21       23    12.924       54     39.7    5.131   -9.900     1.35    0.000    0.000       27        8     2030  Maize_Short_Soroca_7May_Optimum_85_NCC.PRM
  Tot(51)        7        5     2031    154.4    534.3   1187.4   452.00      0.0    151.2      3.2      7.5      0.0     80.6       39    278.1    278.1       87     0.000     0.000     0.000     0.000      107        0        0        0       12        3        9    18.965       84     39.8    7.547   -9.900     2.10    0.000    0.000       27        8     2031  Maize_Short_Soroca_7May_Optimum_85_NCC.PRM
  Tot(52)        7        5     2032    192.4    571.8   1274.4   456.00      0.0    178.0     14.4     17.6      0.0    154.8       59    215.1    215.5       75     0.000     0.000     0.000     0.000      107        0        0        0       13       18       19    13.130       56     36.9    4.839   -9.900     1.31    0.000    0.000       27        8     2032  Maize_Short_Soroca_7May_Optimum_85_NCC.PRM
  Tot(53)        7        5     2033    184.8    518.6   1224.7   460.00      0.0    183.2      1.6      1.8      0.0    139.0       69    260.9    260.1       84     0.000     0.000     0.000     0.000      107        0        0        0       12        4       10    18.773       81     39.8    7.466   -9.900     1.87    0.000    0.000       27        8     2033  Maize_Short_Soroca_7May_Optimum_85_NCC.PRM
  Tot(54)        7        5     2034    227.1    474.5   1135.2   464.00      0.0    217.3      9.8     17.4      0.0    126.9       71    271.8    271.1       95     0.000     0.000     0.000     0.000      107        0        0        0       15        4        4    20.848       92     40.2    8.381   -9.900     2.10    0.000    0.000       27        8     2034  Maize_Short_Soroca_7May_Optimum_85_NCC.PRM
  Tot(55)        7        5     2035    161.5    567.9   1261.6   468.00      0.0    157.9      3.6      2.9      0.0    130.9       59    248.3    249.6       77     0.000     0.000     0.000     0.000      107        0        0        0       10        8       18    16.256       70     39.2    6.367   -9.900     1.68    0.000    0.000       27        8     2035  Maize_Short_Soroca_7May_Optimum_85_NCC.PRM
  Tot(56)        7        5     2036    247.7    433.9   1078.5   472.00      0.0    246.5      1.2      0.5      0.0    143.9       84    243.8    242.7      100     0.000     0.000     0.000     0.000      107        0        0        0       19        1        0    20.340       97     40.0    8.138   -9.900     2.10    0.000    0.000       27        8     2036  Maize_Short_Soroca_7May_Optimum_85_NCC.PRM
  Tot(57)        7        5     2037    121.3    571.5   1357.0   476.00      0.0    120.4      0.9      0.0      0.0     91.3       37    251.9    252.5       79     0.000     0.000     0.000     0.000      107        0        0        0        6        7       13    17.725       73     39.4    6.991   -9.900     2.04    0.000    0.000       27        8     2037  Maize_Short_Soroca_7May_Optimum_85_NCC.PRM
  Tot(58)        7        5     2038    217.6    571.2   1332.1   481.00      0.0    210.2      7.4      0.0      0.0    143.5       68    291.0    291.1       82     0.000     0.000     0.000     0.000      107        0        0        0        9        5       13    19.012       78     39.3    7.472   -9.900     1.72    0.000    0.000       27        8     2038  Maize_Short_Soroca_7May_Optimum_85_NCC.PRM
  Tot(59)        7        5     2039     89.7    571.7   1256.1   485.00      0.0     89.7      0.0      0.0      0.0     88.9       35    223.8    223.8       75     0.000     0.000     0.000     0.000      107        0        0        0       11       12       18    15.265       64     39.5    6.023   -9.900     1.93    0.000    0.000       27        8     2039  Maize_Short_Soroca_7May_Optimum_85_NCC.PRM
  Tot(60)        7        5     2040    183.2    552.1   1241.4   489.00      0.0    180.0      3.2      6.7      0.0    141.7       68    256.2    256.7       79     0.000     0.000     0.000     0.000      107        0        0        0       11        7       18    17.036       70     39.2    6.684   -9.900     1.68    0.000    0.000       27        8     2040  Maize_Short_Soroca_7May_Optimum_85_NCC.PRM
  Tot(61)        7        5     2041    259.5    478.5   1233.0   494.00      0.0    249.1     10.4     31.5      0.0    143.7       80    279.8    278.6       94     0.000     0.000     0.000     0.000      107        0        0        0       10        0        4    21.645       92     39.9    8.645   -9.900     2.04    0.000    0.000       27        8     2041  Maize_Short_Soroca_7May_Optimum_85_NCC.PRM
  Tot(62)        7        5     2042     49.1    691.3   1463.4   499.00      0.0     49.1      0.0      0.0      0.0     83.2       19    170.0    171.2       75     0.000     0.000     0.000     0.000       90        0        0        0       10       33       19     9.013       36     26.9    2.420   -9.900     1.00    0.000    0.000       27        8     2042  Maize_Short_Soroca_7May_Optimum_85_NCC.PRM
  Tot(63)        7        5     2043    174.9    539.3   1282.1   504.00      0.0    171.1      3.8      3.7      0.0    126.9       59    262.3    261.3       83     0.000     0.000     0.000     0.000      107        0        0        0        9        8       11    18.509       79     40.0    7.396   -9.900     1.90    0.000    0.000       27        8     2043  Maize_Short_Soroca_7May_Optimum_85_NCC.PRM
  Tot(64)        7        5     2044    222.5    486.9   1162.5   508.00      0.0    206.1     16.4     20.4      0.0     92.3       49    283.9    284.0       98     0.000     0.000     0.000     0.000      107        0        0        0       12        2        2    22.152       94     40.0    8.862   -9.900     2.36    0.000    0.000       27        8     2044  Maize_Short_Soroca_7May_Optimum_85_NCC.PRM
  Tot(65)        7        5     2045    196.6    492.7   1117.0   513.00      0.0    169.2     27.4     47.6      0.0     96.9       61    247.8    248.6       80     0.000     0.000     0.000     0.000      107        0        0        0       23        5       17    17.031       71     39.2    6.671   -9.900     1.94    0.000    0.000       27        8     2045  Maize_Short_Soroca_7May_Optimum_85_NCC.PRM
  Tot(66)        7        5     2046    232.8    516.9   1299.3   519.00      0.0    219.1     13.7     20.9      0.0    123.2       68    293.5    292.5       88     0.000     0.000     0.000     0.000      107        0        0        0       14        5        9    20.938       85     39.9    8.356   -9.900     2.01    0.000    0.000       27        8     2046  Maize_Short_Soroca_7May_Optimum_85_NCC.PRM
  Tot(67)        7        5     2047    212.3    457.4   1154.0   524.00      0.0    205.6      6.7     11.2      0.0    123.5       77    270.7    269.9       97     0.000     0.000     0.000     0.000      107        0        0        0       14        0        3    21.724       94     40.0    8.691   -9.900     2.20    0.000    0.000       27        8     2047  Maize_Short_Soroca_7May_Optimum_85_NCC.PRM
  Tot(68)        7        5     2048    216.2    552.4   1301.8   529.00      0.0    188.1     28.1     43.8      0.0     99.8       48    268.2    269.7       82     0.000     0.000     0.000     0.000      107        0        0        0       11        3       13    17.948       76     39.3    7.061   -9.900     1.92    0.000    0.000       27        8     2048  Maize_Short_Soroca_7May_Optimum_85_NCC.PRM
  Tot(69)        7        5     2049    209.8    485.5   1141.8   535.00      0.0    199.9      9.9      1.0      0.0    114.9       62    278.9    277.0       98     0.000     0.000     0.000     0.000      107        0        0        0       13        3        2    22.125       95     40.0    8.859   -9.900     2.25    0.000    0.000       27        8     2049  Maize_Short_Soroca_7May_Optimum_85_NCC.PRM
  Tot(70)        7        5     2050    274.4    458.3   1125.4   541.00      0.0    245.3     29.1     50.7      0.0    134.0       86    268.9    270.2       93     0.000     0.000     0.000     0.000      107        0        0        0       19        3        5    21.519       90     40.1    8.629   -9.900     2.14    0.000    0.000       27        8     2050  Maize_Short_Soroca_7May_Optimum_85_NCC.PRM
  Tot(71)        7        5     2051    315.0    402.5   1080.9   546.00      0.0    297.2     17.8     10.1      0.0    128.4       81    228.0    226.6      100     0.000     0.000     0.000     0.000      107        0        0        0       14        1        0    22.171       97     40.0    8.872   -9.900     2.49    0.000    0.000       27        8     2051  Maize_Short_Soroca_7May_Optimum_85_NCC.PRM
  Tot(72)        7        5     2052    191.9    564.9   1331.2   552.00      0.0    186.9      5.0      5.2      0.0    135.8       63    269.9    272.0       81     0.000     0.000     0.000     0.000      107        0        0        0        7        7       14    18.257       75     39.2    7.166   -9.900     1.77    0.000    0.000       27        8     2052  Maize_Short_Soroca_7May_Optimum_85_NCC.PRM
  Tot(73)        7        5     2053    293.6    457.1   1219.5   558.00      0.0    268.0     25.6     50.6      0.0    127.3       84    289.7    288.6       97     0.000     0.000     0.000     0.000      107        0        0        0       13        0        3    23.027       95     40.0    9.218   -9.900     2.21    0.000    0.000       27        8     2053  Maize_Short_Soroca_7May_Optimum_85_NCC.PRM
  Tot(74)        7        5     2054    276.4    518.7   1305.7   564.00      0.0    232.3     44.1     39.7      0.0    148.2       77    265.4    266.4       85     0.000     0.000     0.000     0.000      107        0        0        0        8        3       12    19.624       80     39.7    7.783   -9.900     1.88    0.000    0.000       27        8     2054  Maize_Short_Soroca_7May_Optimum_85_NCC.PRM
  Tot(75)        7        5     2055    241.5    505.7   1218.8   571.00      0.0    238.6      2.9      1.3      0.0    143.3       69    279.6    279.4       98     0.000     0.000     0.000     0.000      107        0        0        0        9        1        1    22.047       95     40.0    8.816   -9.900     2.08    0.000    0.000       27        8     2055  Maize_Short_Soroca_7May_Optimum_85_NCC.PRM
  Tot(76)        7        5     2056    116.8    658.2   1530.8   577.00      0.0    114.6      2.2      0.0      0.0    112.8       35    221.3    222.2       73     0.000     0.000     0.000     0.000       99        0        0        0        3       15       21    13.391       53     34.9    4.673   -9.900     1.41    0.000    0.000       27        8     2056  Maize_Short_Soroca_7May_Optimum_85_NCC.PRM
  Tot(77)        7        5     2057    201.1    518.7   1229.2   583.00      0.0    180.7     20.4     15.2      0.0    141.5       76    245.8    245.4       80     0.000     0.000     0.000     0.000      107        0        0        0       16        6       15    18.040       74     39.5    7.124   -9.900     1.84    0.000    0.000       27        8     2057  Maize_Short_Soroca_7May_Optimum_85_NCC.PRM
  Tot(78)        7        5     2058    116.4    554.9   1246.3   590.00      0.0    113.1      3.3      6.8      0.0    106.3       52    226.7    227.1       74     0.000     0.000     0.000     0.000      107        0        0        0       13        4       20    16.028       67     38.5    6.178   -9.900     1.85    0.000    0.000       27        8     2058  Maize_Short_Soroca_7May_Optimum_85_NCC.PRM
  Tot(79)        7        5     2059     98.3    633.8   1423.9   597.00      0.0     96.2      2.1      4.9      0.0    121.9       34    176.3    176.3       75     0.000     0.000     0.000     0.000       92        0        0        0        8       28       20    10.609       42     28.9    3.063   -9.900     1.05    0.000    0.000       27        8     2059  Maize_Short_Soroca_7May_Optimum_85_NCC.PRM
  Tot(80)        7        5     2060    192.9    447.5   1069.0   604.00      0.0    192.5      0.4      0.0      0.0    119.2       67    247.1    244.9      100     0.000     0.000     0.000     0.000      107        0        0        0       19        1        0    22.003       97     40.1    8.814   -9.900     2.41    0.000    0.000       27        8     2060  Maize_Short_Soroca_7May_Optimum_85_NCC.PRM
  Tot(81)        7        5     2061    189.7    508.1   1241.4   611.00      0.0    175.7     14.0     31.9      0.0    112.9       64    252.8    254.5       83     0.000     0.000     0.000     0.000      107        0        0        0       10        4       14    18.516       77     39.5    7.321   -9.900     2.00    0.000    0.000       27        8     2061  Maize_Short_Soroca_7May_Optimum_85_NCC.PRM
  Tot(82)        7        5     2062    203.7    581.9   1377.0   618.00      0.0    200.3      3.4      2.4      0.0    114.3       48    275.5    274.5       84     0.000     0.000     0.000     0.000      107        0        0        0        7       13       10    19.084       79     39.9    7.616   -9.900     1.95    0.000    0.000       27        8     2062  Maize_Short_Soroca_7May_Optimum_85_NCC.PRM
  Tot(83)        7        5     2063    191.0    590.1   1367.4   625.00      0.0    178.2     12.8     25.2      0.0    157.5       60    216.8    218.4       77     0.000     0.000     0.000     0.000      105        0        0        0        6       10       19    15.742       64     39.3    6.180   -9.900     1.65    0.000    0.000       27        8     2063  Maize_Short_Soroca_7May_Optimum_85_NCC.PRM
  Tot(84)        7        5     2064    136.4    567.0   1353.7   632.00      0.0    135.3      1.1      1.7      0.0    113.9       49    230.5    229.9       78     0.000     0.000     0.000     0.000      107        0        0        0       10       10       17    15.874       65     39.3    6.232   -9.900     1.81    0.000    0.000       27        8     2064  Maize_Short_Soroca_7May_Optimum_85_NCC.PRM
  Tot(85)        7        5     2065    252.6    563.7   1419.6   639.00      0.0    233.9     18.7     33.9      0.0    137.2       70    286.2    286.4       83     0.000     0.000     0.000     0.000      107        0        0        0        6        1       13    19.844       80     39.3    7.807   -9.900     1.84    0.000    0.000       27        8     2065  Maize_Short_Soroca_7May_Optimum_85_NCC.PRM
  Tot(86)        7        5     2066     88.2    625.2   1419.9   647.00      0.0     88.1      0.1      0.0      0.0     95.2       30    207.0    207.4       75     0.000     0.000     0.000     0.000      101        0        0        0        7       20       20    13.317       54     37.4    4.980   -9.900     1.66    0.000    0.000       27        8     2066  Maize_Short_Soroca_7May_Optimum_85_NCC.PRM
  Tot(87)        7        5     2067    105.6    651.6   1428.3   654.00      0.0    105.5      0.1      0.0      0.0    122.8       33    186.8    186.8       76     0.000     0.000     0.000     0.000       95        0        0        0        9       27       19    11.412       45     32.0    3.648   -9.900     1.22    0.000    0.000       27        8     2067  Maize_Short_Soroca_7May_Optimum_85_NCC.PRM
  Tot(88)        7        5     2068    259.0    505.5   1298.7   662.00      0.0    233.3     25.7     45.6      0.0    145.4       82    263.7    263.0       86     0.000     0.000     0.000     0.000      107        0        0        0        7        2       11    20.151       82     39.6    7.989   -9.900     1.95    0.000    0.000       27        8     2068  Maize_Short_Soroca_7May_Optimum_85_NCC.PRM
  Tot(89)        7        5     2069    349.7    443.2   1189.6   669.00      0.0    318.2     31.5     47.3      0.0    147.4       86    253.9    251.8      100     0.000     0.000     0.000     0.000      107        0        0        0        9        2        0    22.991       97     40.1    9.228   -9.900     2.30    0.000    0.000       27        8     2069  Maize_Short_Soroca_7May_Optimum_85_NCC.PRM
  Tot(90)        7        5     2070    120.8    541.2   1278.9   677.00      0.0    117.5      3.3     10.9      0.0     85.0       42    245.8    248.2       80     0.000     0.000     0.000     0.000      107        0        0        0       11        5       15    18.219       74     39.4    7.175   -9.900     2.17    0.000    0.000       27        8     2070  Maize_Short_Soroca_7May_Optimum_85_NCC.PRM
  Tot(91)        7        5     2071    235.6    547.4   1428.6   685.00      0.0    218.7     16.9     27.0      0.0    134.4       67    273.0    272.6       84     0.000     0.000     0.000     0.000      107        0        0        0        5        3       12    19.315       78     39.8    7.681   -9.900     1.89    0.000    0.000       27        8     2071  Maize_Short_Soroca_7May_Optimum_85_NCC.PRM
  Tot(92)        7        5     2072    276.2    508.0   1428.1   693.00      0.0    265.4     10.8     12.9      0.0    140.8       71    294.8    293.1       99     0.000     0.000     0.000     0.000      107        0        0        0        3        1        0    23.655       97     40.0    9.468   -9.900     2.17    0.000    0.000       27        8     2072  Maize_Short_Soroca_7May_Optimum_85_NCC.PRM
  Tot(93)        7        5     2073    168.7    598.4   1416.2   701.00      0.0    168.1      0.6      0.0      0.0    127.8       56    254.7    256.0       78     0.000     0.000     0.000     0.000      107        0        0        0        6        6       16    16.506       67     38.9    6.416   -9.900     1.68    0.000    0.000       27        8     2073  Maize_Short_Soroca_7May_Optimum_85_NCC.PRM
  Tot(94)        7        5     2074    266.0    610.0   1556.0   709.00      0.0    256.8      9.2     27.6      0.0    149.8       63    280.1    281.0       82     0.000     0.000     0.000     0.000      107        0        0        0        5       10       16    17.059       68     39.1    6.677   -9.900     1.55    0.000    0.000       27        8     2074  Maize_Short_Soroca_7May_Optimum_85_NCC.PRM
  Tot(95)        7        5     2075    148.9    549.8   1264.2   717.00      0.0    145.1      3.8      4.2      0.0    108.6       53    249.7    249.5       80     0.000     0.000     0.000     0.000      107        0        0        0       13       16       15    17.535       72     40.2    7.045   -9.900     1.97    0.000    0.000       27        8     2075  Maize_Short_Soroca_7May_Optimum_85_NCC.PRM
  Tot(96)        7        5     2076    189.2    518.1   1328.8   725.00      0.0    187.1      2.1      0.0      0.0    129.1       71    276.0    275.5       87     0.000     0.000     0.000     0.000      107        0        0        0       10        2        9    20.958       85     39.8    8.343   -9.900     2.06    0.000    0.000       27        8     2076  Maize_Short_Soroca_7May_Optimum_85_NCC.PRM
  Tot(97)        7        5     2077     95.5    626.5   1447.6   733.00      0.0     95.3      0.2      0.0      0.0     99.3       33    218.4    219.4       77     0.000     0.000     0.000     0.000      104        0        0        0        4       11       20    14.553       59     39.0    5.672   -9.900     1.79    0.000    0.000       27        8     2077  Maize_Short_Soroca_7May_Optimum_85_NCC.PRM
  Tot(98)        7        5     2078    131.1    632.2   1450.0   742.00      0.0    115.7     15.4     36.2      0.0     95.8       32    204.1    204.1       74     0.000     0.000     0.000     0.000       99        0        0        0       10       18       21    13.246       53     35.2    4.662   -9.900     1.56    0.000    0.000       27        8     2078  Maize_Short_Soroca_7May_Optimum_85_NCC.PRM
  Tot(99)        7        5     2079    228.3    485.7   1327.6   750.00      0.0    218.5      9.8     24.0      0.0    128.0       77    272.5    270.7       93     0.000     0.000     0.000     0.000      107        0        0        0        8        4        5    21.600       90     40.2    8.677   -9.900     2.17    0.000    0.000       27        8     2079  Maize_Short_Soroca_7May_Optimum_85_NCC.PRM
 Tot(100)        7        5     2080    233.8    488.9   1176.2   758.00      0.0    217.9     15.9     27.7      0.0    133.7       75    233.9    234.5       84     0.000     0.000     0.000     0.000      107        0        0        0       17        8       11    18.143       76     39.9    7.240   -9.900     1.97    0.000    0.000       27        8     2080  Maize_Short_Soroca_7May_Optimum_85_NCC.PRM
 Tot(101)        7        5     2081     87.5    627.5   1459.8   767.00      0.0     87.4      0.1      0.0      0.0    100.0       31    188.2    189.4       74     0.000     0.000     0.000     0.000       96        0        0        0        6       21       20    11.971       49     32.7    3.917   -9.900     1.40    0.000    0.000       27        8     2081  Maize_Short_Soroca_7May_Optimum_85_NCC.PRM
 Tot(102)        7        5     2082    396.1    461.9   1342.6   775.00      0.0    340.8     55.3     37.7      0.0    140.3       76    257.3    254.7      100     0.000     0.000     0.000     0.000      107        0        0        0        8        2        0    23.158       97     40.1    9.288   -9.900     2.34    0.000    0.000       27        8     2082  Maize_Short_Soroca_7May_Optimum_85_NCC.PRM
 Tot(103)        7        5     2083    221.4    555.3   1499.1   784.00      0.0    219.8      1.6      1.3      0.0    119.8       54    298.6    299.5       95     0.000     0.000     0.000     0.000      107        0        0        0        3        4        3    22.047       90     40.0    8.824   -9.900     2.11    0.000    0.000       27        8     2083  Maize_Short_Soroca_7May_Optimum_85_NCC.PRM
 Tot(104)        7        5     2084    226.5    496.8   1322.4   792.00      0.0    199.0     27.5     20.7      0.0    102.2       50    268.2    267.5       97     0.000     0.000     0.000     0.000      107        0        0        0        9       18        2    21.753       90     40.6    8.842   -9.900     2.39    0.000    0.000       27        8     2084  Maize_Short_Soroca_7May_Optimum_85_NCC.PRM
 Tot(105)        7        5     2085    101.8    713.8   1688.4   801.00      0.0    101.6      0.2      0.0      0.0    132.5       30    165.5    167.7       76     0.000     0.000     0.000     0.000       89        0        0        0        4       33       19     9.163       37     26.1    2.388   -9.900     0.85    0.000    0.000       27        8     2085  Maize_Short_Soroca_7May_Optimum_85_NCC.PRM
 Tot(106)        7        5     2086    141.6    552.7   1402.7   810.00      0.0    141.5      0.1      0.0      0.0    106.4       45    252.8    251.7       86     0.000     0.000     0.000     0.000      107        0        0        0        3        8        9    19.898       82     39.9    7.932   -9.900     2.21    0.000    0.000       27        8     2086  Maize_Short_Soroca_7May_Optimum_85_NCC.PRM
 Tot(107)        7        5     2087    214.7    518.0   1346.7   818.00      0.0    200.7     14.0     23.6      0.0    141.5       78    255.6    255.7       85     0.000     0.000     0.000     0.000      107        0        0        0       10        2       10    19.993       84     39.8    7.960   -9.900     2.00    0.000    0.000       27        8     2087  Maize_Short_Soroca_7May_Optimum_85_NCC.PRM
 Tot(108)        7        5     2088    247.5    664.3   1679.9   827.00      0.0    200.8     46.7     52.9      0.0    155.6       45    204.7    205.6       76     0.000     0.000     0.000     0.000       97        0        0        0        4       22       20    12.121       49     33.9    4.114   -9.900     1.15    0.000    0.000       27        8     2088  Maize_Short_Soroca_7May_Optimum_85_NCC.PRM
 Tot(109)        7        5     2089    139.9    637.0   1435.5   836.00      0.0    130.0      9.9     15.9      0.0    126.7       40    201.3    201.3       76     0.000     0.000     0.000     0.000       97        0        0        0       11       25       20    11.933       49     33.8    4.037   -9.900     1.24    0.000    0.000       27        8     2089  Maize_Short_Soroca_7May_Optimum_85_NCC.PRM
 Tot(110)        7        5     2090    135.4    584.4   1441.5   845.00      0.0    135.2      0.2      0.0      0.0    129.6       53    226.9    226.8       78     0.000     0.000     0.000     0.000      107        0        0        0        9       10       19    15.985       66     39.4    6.292   -9.900     1.77    0.000    0.000       27        8     2090  Maize_Short_Soroca_7May_Optimum_85_NCC.PRM
 Tot(111)        7        5     2091    281.7    512.9   1388.1   854.00      0.0    267.7     14.0     34.7      0.0    149.7       83    287.2    285.3       95     0.000     0.000     0.000     0.000      107        0        0        0        7        2        4    22.152       92     40.0    8.856   -9.900     2.03    0.000    0.000       27        8     2091  Maize_Short_Soroca_7May_Optimum_85_NCC.PRM
 Tot(112)        7        5     2092    246.8    583.5   1492.4   863.00      0.0    226.9     19.9     27.2      0.0    146.1       74    277.0    278.2       81     0.000     0.000     0.000     0.000      107        0        0        0        5        2       13    19.231       80     39.3    7.562   -9.900     1.79    0.000    0.000       27        8     2092  Maize_Short_Soroca_7May_Optimum_85_NCC.PRM
 Tot(113)        7        5     2093    315.6    591.4   1605.9   872.00      0.0    275.5     40.1     67.0      0.0    145.1       75    286.8    286.8       81     0.000     0.000     0.000     0.000      107        0        0        0        2        1       13    19.480       80     39.3    7.651   -9.900     1.77    0.000    0.000       27        8     2093  Maize_Short_Soroca_7May_Optimum_85_NCC.PRM
 Tot(114)        7        5     2094    296.9    556.6   1482.4   881.00      0.0    274.1     22.8     32.1      0.0    122.3       63    308.3    307.7       94     0.000     0.000     0.000     0.000      107        0        0        0        4        6        4    21.860       90     40.1    8.775   -9.900     2.04    0.000    0.000       27        8     2094  Maize_Short_Soroca_7May_Optimum_85_NCC.PRM
 Tot(115)        7        5     2095    204.7    603.9   1540.9   890.00      0.0    196.9      7.8      5.3      0.0    141.3       65    272.3    272.9       81     0.000     0.000     0.000     0.000      107        0        0        0        4        5       14    18.503       77     39.5    7.312   -9.900     1.77    0.000    0.000       27        8     2095  Maize_Short_Soroca_7May_Optimum_85_NCC.PRM
 Tot(116)        7        5     2096    187.7    636.6   1608.4   899.00      0.0    180.5      7.2      1.9      0.0    141.6       58    261.5    261.9       78     0.000     0.000     0.000     0.000      107        0        0        0        2        4       18    16.952       70     38.9    6.600   -9.900     1.64    0.000    0.000       27        8     2096  Maize_Short_Soroca_7May_Optimum_85_NCC.PRM
 Tot(117)        7        5     2097    175.8    633.1   1505.4   908.00      0.0    175.1      0.7      1.1      0.0    130.1       48    263.1    262.8       83     0.000     0.000     0.000     0.000      107        0        0        0        4       13       14    17.057       71     40.1    6.833   -9.900     1.74    0.000    0.000       27        8     2097  Maize_Short_Soroca_7May_Optimum_85_NCC.PRM
 Tot(118)        7        5     2098    134.4    617.3   1548.8   917.00      0.0    133.0      1.4      0.0      0.0    105.9       43    247.6    248.0       79     0.000     0.000     0.000     0.000      107        0        0        0        6        8       18    16.213       68     39.3    6.376   -9.900     1.80    0.000    0.000       27        8     2098  Maize_Short_Soroca_7May_Optimum_85_NCC.PRM
 Tot(119)        7        5     2099    168.0    529.8   1370.9   927.00      0.0    167.5      0.5      0.0      0.0    111.6       59    267.5    266.5       89     0.000     0.000     0.000     0.000      107        0        0        0        8        2        7    20.677       88     39.8    8.240   -9.900     2.17    0.000    0.000       27        8     2099  Maize_Short_Soroca_7May_Optimum_85_NCC.PRM
