AquaCrop 7.0 (August 2022) - Output created on (date) : 23-11-2022   at (time) : 12:15:29

    RunNr     Day1   Month1    Year1     Rain      ETo       GD     CO2      Irri   Infilt   Runoff    Drain   Upflow        E     E/Ex       Tr      TrW   Tr/Trx    SaltIn   SaltOut    SaltUp  SaltProf     Cycle   SaltStr  FertStr  WeedStr  TempStr   ExpStr   StoStr  BioMass  Brelative   HI    Y(dry)  Y(fresh)    WPet      Bin     Bout     DayN   MonthN    YearN
                                           mm       mm  degC.day    ppm        mm       mm       mm       mm       mm       mm        %       mm       mm        %    ton/ha    ton/ha    ton/ha    ton/ha      days       %        %        %        %        %        %    ton/ha        %       %    ton/ha   ton/ha    kg/m3   ton/ha   ton/ha
   Tot(1)        6        6     1981    323.6    420.3   1169.7   340.11      0.0    268.1     55.5     55.9      0.0    129.2       64    209.4    162.2      100     0.000     0.000     0.000     0.000      107        0       42       25       19        7        0    13.652       75     40.4    5.513   -9.900     1.63    0.000    0.000       26        9     1981  Maize_Short_Soroca_6June_NonOptimum_26_MOHC.PRM
   Tot(2)        6        6     1982    276.8    416.0   1171.0   341.22      0.0    237.3     39.5     48.6      0.0    148.1       82    232.7    181.3       97     0.000     0.000     0.000     0.000      107        0       42       25       12        3        3    15.472       72     40.2    6.214   -9.900     1.63    0.000    0.000       26        9     1982  Maize_Short_Soroca_6June_NonOptimum_26_MOHC.PRM
   Tot(3)        6        6     1983    213.6    428.2   1169.7   342.84      0.0    208.8      4.8      6.9      0.0    121.7       64    228.0    177.0      100     0.000     0.000     0.000     0.000      107        0       42       25       13        1        0    15.114       75     40.0    6.047   -9.900     1.73    0.000    0.000       26        9     1983  Maize_Short_Soroca_6June_NonOptimum_26_MOHC.PRM
   Tot(4)        6        6     1984    282.0    406.7   1061.7   344.40      0.0    268.3     13.7     12.2      0.0    154.8       87    216.6    166.7      100     0.000     0.000     0.000     0.000      107        0       42       25       20        1        0    14.959       76     40.1    5.996   -9.900     1.61    0.000    0.000       26        9     1984  Maize_Short_Soroca_6June_NonOptimum_26_MOHC.PRM
   Tot(5)        6        6     1985    357.2    428.1   1082.1   345.87      0.0    308.6     48.6     56.8      0.0    145.6       82    232.9    181.8      100     0.000     0.000     0.000     0.000      107        0       42       25       23        2        1    13.876       75     40.1    5.558   -9.900     1.47    0.000    0.000       26        9     1985  Maize_Short_Soroca_6June_NonOptimum_26_MOHC.PRM
   Tot(6)        6        6     1986    147.6    489.6   1212.2   347.19      0.0    146.7      0.9      0.0      0.0    114.5       49    234.2    182.3       96     0.000     0.000     0.000     0.000      107        0       42       25       17        9        5    13.337       69     40.4    5.383   -9.900     1.54    0.000    0.000       26        9     1986  Maize_Short_Soroca_6June_NonOptimum_26_MOHC.PRM
   Tot(7)        6        6     1987    211.9    451.8   1159.6   348.98      0.0    206.3      5.6      6.4      0.0    114.2       50    205.0    159.0      100     0.000     0.000     0.000     0.000      107        0       42       25       17        6        0    13.458       73     40.0    5.385   -9.900     1.69    0.000    0.000       26        9     1987  Maize_Short_Soroca_6June_NonOptimum_26_MOHC.PRM
   Tot(8)        6        6     1988    248.1    413.1   1202.7   351.45      0.0    238.8      9.3     15.2      0.0    134.4       71    218.9    170.8      100     0.000     0.000     0.000     0.000      107        0       42       25       16        3        0    14.566       75     40.2    5.854   -9.900     1.66    0.000    0.000       26        9     1988  Maize_Short_Soroca_6June_NonOptimum_26_MOHC.PRM
   Tot(9)        6        6     1989    414.3    403.4   1141.8   352.89      0.0    339.5     74.8     37.5      0.0    122.6       65    206.5    160.3      100     0.000     0.000     0.000     0.000      107        0       42       25       16        2        0    14.420       75     40.0    5.772   -9.900     1.75    0.000    0.000       26        9     1989  Maize_Short_Soroca_6June_NonOptimum_26_MOHC.PRM
  Tot(10)        6        6     1990    176.4    440.5   1094.6   354.16      0.0    167.9      8.5     13.1      0.0    123.5       60    210.7    165.4       98     0.000     0.000     0.000     0.000      107        0       42       25       20       12        2    12.780       71     40.6    5.189   -9.900     1.55    0.000    0.000       26        9     1990  Maize_Short_Soroca_6June_NonOptimum_26_MOHC.PRM
  Tot(11)        6        6     1991    371.0    403.5   1213.4   355.48      0.0    322.1     48.9     40.9      0.0    147.2       75    199.8    154.2      100     0.000     0.000     0.000     0.000      107        0       42       25       13        0        0    14.871       76     40.0    5.948   -9.900     1.71    0.000    0.000       26        9     1991  Maize_Short_Soroca_6June_NonOptimum_26_MOHC.PRM
  Tot(12)        6        6     1992    153.8    498.8   1261.7   356.27      0.0    153.4      0.4      0.0      0.0    126.9       53    219.7    174.7       85     0.000     0.000     0.000     0.000      107        0       42       25       15       19        8    11.527       59     40.6    4.677   -9.900     1.35    0.000    0.000       26        9     1992  Maize_Short_Soroca_6June_NonOptimum_26_MOHC.PRM
  Tot(13)        6        6     1993    276.6    430.4   1056.4   356.95      0.0    234.0     42.6      0.0      0.0    116.0       57    211.2    163.3      100     0.000     0.000     0.000     0.000      107        0       42       25       23        5        0    13.556       74     40.3    5.458   -9.900     1.67    0.000    0.000       26        9     1993  Maize_Short_Soroca_6June_NonOptimum_26_MOHC.PRM
  Tot(14)        6        6     1994    213.3    492.9   1309.0   358.63      0.0    170.1     43.2     19.9      0.0     89.2       35    245.3    193.4       95     0.000     0.000     0.000     0.000      107        0       42       25        7       23        3    14.550       65     40.9    5.953   -9.900     1.78    0.000    0.000       26        9     1994  Maize_Short_Soroca_6June_NonOptimum_26_MOHC.PRM
  Tot(15)        6        6     1995    377.3    450.2   1246.1   360.62      0.0    331.3     46.0     26.1      0.0    119.3       55    236.5    184.6      100     0.000     0.000     0.000     0.000      107        0       42       25       13        2        0    15.025       75     40.1    6.022   -9.900     1.69    0.000    0.000       26        9     1995  Maize_Short_Soroca_6June_NonOptimum_26_MOHC.PRM
  Tot(16)        6        6     1996    392.3    424.9   1100.1   362.37      0.0    340.3     52.0     22.4      0.0    133.1       61    197.5    153.4      100     0.000     0.000     0.000     0.000      107        0       42       25       24        2        0    12.915       75     40.1    5.180   -9.900     1.57    0.000    0.000       26        9     1996  Maize_Short_Soroca_6June_NonOptimum_26_MOHC.PRM
  Tot(17)        6        6     1997    318.9    401.6   1109.9   363.47      0.0    300.0     18.9     23.7      0.0    142.6       74    190.5    147.8      100     0.000     0.000     0.000     0.000      107        0       42       25       19        1        0    13.839       75     40.0    5.540   -9.900     1.66    0.000    0.000       26        9     1997  Maize_Short_Soroca_6June_NonOptimum_26_MOHC.PRM
  Tot(18)        6        6     1998    287.9    420.7   1171.6   366.50      0.0    270.1     17.8     35.9      0.0    126.6       70    221.8    171.5      100     0.000     0.000     0.000     0.000      107        0       42       25       20        2        0    13.914       75     40.1    5.582   -9.900     1.60    0.000    0.000       26        9     1998  Maize_Short_Soroca_6June_NonOptimum_26_MOHC.PRM
  Tot(19)        6        6     1999    165.9    483.7   1378.8   368.14      0.0    165.9      0.0      0.0      0.0    116.2       46    239.8    187.0       99     0.000     0.000     0.000     0.000      107        0       42       25        7       13        1    15.460       72     40.5    6.269   -9.900     1.76    0.000    0.000       26        9     1999  Maize_Short_Soroca_6June_NonOptimum_26_MOHC.PRM
  Tot(20)        6        6     2000    297.3    455.6   1161.2   369.41      0.0    282.8     14.5     20.8      0.0    148.9       68    232.4    181.5      100     0.000     0.000     0.000     0.000      107        0       42       25       20        2        0    14.446       75     40.2    5.805   -9.900     1.52    0.000    0.000       26        9     2000  Maize_Short_Soroca_6June_NonOptimum_26_MOHC.PRM
  Tot(21)        6        6     2001    265.2    462.1   1291.3   371.07      0.0    251.0     14.2      4.4      0.0    148.7       72    243.1    189.8       95     0.000     0.000     0.000     0.000      107        0       42       25       12        9        3    14.378       69     40.5    5.829   -9.900     1.49    0.000    0.000       26        9     2001  Maize_Short_Soroca_6June_NonOptimum_26_MOHC.PRM
  Tot(22)        6        6     2002    389.7    467.2   1321.1   373.16      0.0    352.6     37.1     42.5      0.0    111.1       45    233.9    182.1      100     0.000     0.000     0.000     0.000      107        0       42       25       11        4        0    15.029       72     40.0    6.012   -9.900     1.74    0.000    0.000       26        9     2002  Maize_Short_Soroca_6June_NonOptimum_26_MOHC.PRM
  Tot(23)        6        6     2003    334.8    489.0   1220.9   375.80      0.0    285.0     49.8     63.3      0.0    133.7       57    245.9    190.9      100     0.000     0.000     0.000     0.000      107        0       42       25       15        2        0    14.754       74     40.0    5.907   -9.900     1.56    0.000    0.000       26        9     2003  Maize_Short_Soroca_6June_NonOptimum_26_MOHC.PRM
  Tot(24)        6        6     2004    263.1    450.3   1178.8   377.49      0.0    242.3     20.8      9.2      0.0     93.0       39    210.9    164.2      100     0.000     0.000     0.000     0.000      107        0       42       25       15        4        0    14.536       73     40.0    5.815   -9.900     1.91    0.000    0.000       26        9     2004  Maize_Short_Soroca_6June_NonOptimum_26_MOHC.PRM
  Tot(25)        6        6     2005    181.1    447.2   1239.3   379.80      0.0    175.6      5.5      8.2      0.0    113.8       56    245.0    189.7       99     0.000     0.000     0.000     0.000      107        0       42       25        9        6        1    16.028       73     40.2    6.443   -9.900     1.80    0.000    0.000       26        9     2005  Maize_Short_Soroca_6June_NonOptimum_26_MOHC.PRM
  Tot(26)        6        6     2006    220.5    483.0   1237.4   381.90      0.0    215.5      5.0      0.0      0.0    107.4       46    249.8    193.9      100     0.000     0.000     0.000     0.000      107        0       42       25       11        7        0    15.455       73     40.2    6.214   -9.900     1.74    0.000    0.000       26        9     2006  Maize_Short_Soroca_6June_NonOptimum_26_MOHC.PRM
  Tot(27)        6        6     2007    185.3    532.1   1314.3   383.77      0.0    181.4      3.9      0.0      0.0    105.3       34    226.3    180.0      100     0.000     0.000     0.000     0.000      107        0       42       25       13       17        0    13.562       68     40.3    5.469   -9.900     1.65    0.000    0.000       26        9     2007  Maize_Short_Soroca_6June_NonOptimum_26_MOHC.PRM
  Tot(28)        6        6     2008    400.0    488.6   1252.2   385.59      0.0    330.7     69.3     52.0      0.0    121.0       50    256.1    199.7      100     0.000     0.000     0.000     0.000      107        0       42       25       15        3        0    14.463       74     40.1    5.794   -9.900     1.54    0.000    0.000       26        9     2008  Maize_Short_Soroca_6June_NonOptimum_26_MOHC.PRM
  Tot(29)        6        6     2009    155.7    534.4   1353.0   387.37      0.0    154.7      1.0      0.0      0.0    147.7       53    224.3    176.7       86     0.000     0.000     0.000     0.000      107        0       42       25        8       15       15    12.455       56     40.0    4.984   -9.900     1.34    0.000    0.000       26        9     2009  Maize_Short_Soroca_6June_NonOptimum_26_MOHC.PRM
  Tot(30)        6        6     2010    312.2    466.6   1338.8   389.85      0.0    287.9     24.3     41.7      0.0    138.3       65    249.8    192.8       99     0.000     0.000     0.000     0.000      107        0       42       25       13        6        1    15.023       74     40.4    6.068   -9.900     1.56    0.000    0.000       26        9     2010  Maize_Short_Soroca_6June_NonOptimum_26_MOHC.PRM
  Tot(31)        6        6     2011    175.5    501.1   1309.7   391.63      0.0    172.0      3.5      3.5      0.0    141.3       61    244.8    192.0       89     0.000     0.000     0.000     0.000      107        0       42       25        8        5       12    14.120       62     39.9    5.628   -9.900     1.46    0.000    0.000       26        9     2011  Maize_Short_Soroca_6June_NonOptimum_26_MOHC.PRM
  Tot(32)        6        6     2012    107.4    583.0   1401.8   393.82      0.0    105.8      1.6      3.9      0.0    104.2       29    211.3    169.0       87     0.000     0.000     0.000     0.000      107        0       42       25        7       30       13    11.070       50     40.4    4.475   -9.900     1.42    0.000    0.000       26        9     2012  Maize_Short_Soroca_6June_NonOptimum_26_MOHC.PRM
  Tot(33)        6        6     2013    249.3    473.0   1269.4   396.48      0.0    231.5     17.8      0.0      0.0    130.3       53    203.7    160.1       91     0.000     0.000     0.000     0.000      107        0       42       25       13       20        4    12.786       63     40.8    5.219   -9.900     1.56    0.000    0.000       26        9     2013  Maize_Short_Soroca_6June_NonOptimum_26_MOHC.PRM
  Tot(34)        6        6     2014    237.1    504.5   1302.8   398.55      0.0    217.1     20.0     22.3      0.0    105.9       46    262.6    204.1       95     0.000     0.000     0.000     0.000      107        0       42       25       11        6        5    14.973       69     40.2    6.012   -9.900     1.63    0.000    0.000       26        9     2014  Maize_Short_Soroca_6June_NonOptimum_26_MOHC.PRM
  Tot(35)        6        6     2015     75.3    590.7   1405.3   401.00      0.0     75.3      0.0      0.0      0.0     96.2       25    171.2    137.6       80     0.000     0.000     0.000     0.000      102        0       42       25        7       30       17     8.359       37     39.5    3.300   -9.900     1.26    0.000    0.000       26        9     2015  Maize_Short_Soroca_6June_NonOptimum_26_MOHC.PRM
  Tot(36)        6        6     2016    196.8    529.3   1373.3   403.00      0.0    193.9      2.9      1.7      0.0    155.3       59    244.0    191.8       89     0.000     0.000     0.000     0.000      107        0       42       25        9       17       12    13.380       61     40.2    5.385   -9.900     1.35    0.000    0.000       26        9     2016  Maize_Short_Soroca_6June_NonOptimum_26_MOHC.PRM
  Tot(37)        6        6     2017    229.7    532.7   1347.1   405.00      0.0    222.5      7.2      1.9      0.0    148.0       56    239.4    187.2       88     0.000     0.000     0.000     0.000      107        0       42       25        8       13        9    13.430       60     40.2    5.401   -9.900     1.39    0.000    0.000       26        9     2017  Maize_Short_Soroca_6June_NonOptimum_26_MOHC.PRM
  Tot(38)        6        6     2018    252.3    476.6   1408.2   408.00      0.0    239.0     13.3     15.2      0.0    141.3       69    276.7    214.8       98     0.000     0.000     0.000     0.000      107        0       42       25        7        1        2    16.794       73     40.0    6.724   -9.900     1.61    0.000    0.000       26        9     2018  Maize_Short_Soroca_6June_NonOptimum_26_MOHC.PRM
  Tot(39)        6        6     2019    166.3    540.1   1376.3   410.00      0.0    163.1      3.2      4.4      0.0    138.9       51    217.0    169.8       81     0.000     0.000     0.000     0.000      107        0       42       25        9       13       17    12.019       55     39.7    4.777   -9.900     1.34    0.000    0.000       26        9     2019  Maize_Short_Soroca_6June_NonOptimum_26_MOHC.PRM
  Tot(40)        6        6     2020    139.6    637.0   1516.5   412.00      0.0    134.0      5.6      0.0      0.0    125.3       31    175.2    141.9       74     0.000     0.000     0.000     0.000      107        0       42       25        8       34       14     7.007       31     37.7    2.643   -9.900     0.88    0.000    0.000       26        9     2020  Maize_Short_Soroca_6June_NonOptimum_26_MOHC.PRM
  Tot(41)        6        6     2021    124.4    624.8   1490.0   414.00      0.0    115.9      8.5      0.0      0.0     89.7       24    240.2    192.3       89     0.000     0.000     0.000     0.000      107        0       42       25        7       24       11    11.915       53     39.9    4.753   -9.900     1.44    0.000    0.000       26        9     2021  Maize_Short_Soroca_6June_NonOptimum_26_MOHC.PRM
  Tot(42)        6        6     2022    126.3    667.5   1660.6   417.00      0.0    122.0      4.3      5.4      0.0    116.1       31    217.5    172.7       77     0.000     0.000     0.000     0.000       97        0       42       25        1       20       20     9.421       39     33.6    3.164   -9.900     0.96    0.000    0.000       26        9     2022  Maize_Short_Soroca_6June_NonOptimum_26_MOHC.PRM
  Tot(43)        6        6     2023     55.8    708.9   1601.9   419.00      0.0     55.8      0.0      0.0      0.0     86.6       16    150.5    123.6       76     0.000     0.000     0.000     0.000       99        0       42       25        3       39       16     5.661       24     33.3    1.888   -9.900     0.81    0.000    0.000       26        9     2023  Maize_Short_Soroca_6June_NonOptimum_26_MOHC.PRM
  Tot(44)        6        6     2024    117.4    601.5   1492.4   421.00      0.0    117.2      0.2      0.0      0.0    122.0       35    177.9    141.9       75     0.000     0.000     0.000     0.000       90        0       42       25        1       29       20     8.042       34     26.8    2.158   -9.900     0.75    0.000    0.000       26        9     2024  Maize_Short_Soroca_6June_NonOptimum_26_MOHC.PRM
  Tot(45)        6        6     2025    177.4    580.3   1424.9   423.00      0.0    149.3     28.1      0.0      0.0     93.4       22    163.9    134.6       93     0.000     0.000     0.000     0.000      107        0       42       25       10       40        3     9.041       43     40.9    3.695   -9.900     1.44    0.000    0.000       26        9     2025  Maize_Short_Soroca_6June_NonOptimum_26_MOHC.PRM
  Tot(46)        6        6     2026    141.7    701.5   1578.3   424.00      0.0    134.5      7.2      1.2      0.0    112.5       26    190.7    152.7       72     0.000     0.000     0.000     0.000       88        0       42       25        1       28       21     7.126       34     24.6    1.756   -9.900     0.63    0.000    0.000       26        9     2026  Maize_Short_Soroca_6June_NonOptimum_26_MOHC.PRM
  Tot(47)        6        6     2027     38.1    685.2   1554.8   426.00      0.0     38.1      0.0      0.0      0.0     76.7       15    154.0    126.5       80     0.000     0.000     0.000     0.000       92        0       42       25        2       39       17     6.186       27     29.4    1.816   -9.900     0.81    0.000    0.000       26        9     2027  Maize_Short_Soroca_6June_NonOptimum_26_MOHC.PRM
  Tot(48)        6        6     2028    182.0    661.7   1496.0   428.00      0.0    144.1     37.9      1.0      0.0    111.7       22    162.4    133.7       87     0.000     0.000     0.000     0.000      107        0       42       25       10       41        7     7.821       37     40.8    3.193   -9.900     1.16    0.000    0.000       26        9     2028  Maize_Short_Soroca_6June_NonOptimum_26_MOHC.PRM
  Tot(49)        6        6     2029     97.3    638.9   1577.5   429.00      0.0     95.1      2.2      4.3      0.0    113.7       27    160.7    130.9       75     0.000     0.000     0.000     0.000       87        0       42       25        1       35       19     6.555       28     24.0    1.576   -9.900     0.62    0.000    0.000       26        9     2029  Maize_Short_Soroca_6June_NonOptimum_26_MOHC.PRM
  Tot(50)        6        6     2030     26.6    761.3   1691.6   431.00      0.0     26.6      0.0      0.0      0.0     70.1       11    144.6    120.1       82     0.000     0.000     0.000     0.000       98        0       42       25        1       44       15     5.253       22     32.5    1.709   -9.900     0.80    0.000    0.000       26        9     2030  Maize_Short_Soroca_6June_NonOptimum_26_MOHC.PRM
  Tot(51)        6        6     2031    132.1    653.5   1594.1   432.00      0.0    125.8      6.3      2.1      0.0    126.4       34    206.9    164.2       77     0.000     0.000     0.000     0.000       94        0       42       25        1       23       19     8.902       37     31.1    2.772   -9.900     0.84    0.000    0.000       26        9     2031  Maize_Short_Soroca_6June_NonOptimum_26_MOHC.PRM
  Tot(52)        6        6     2032     61.7    727.3   1651.0   433.00      0.0     60.6      1.1      0.0      0.0     82.5       14    158.2    131.2       84     0.000     0.000     0.000     0.000      107        0       42       25        4       43       10     6.552       28     40.7    2.670   -9.900     1.11    0.000    0.000       26        9     2032  Maize_Short_Soroca_6June_NonOptimum_26_MOHC.PRM
  Tot(53)        6        6     2033     77.6    713.9   1600.8   435.00      0.0     76.7      0.9      0.0      0.0    105.9       20    153.8    127.2       80     0.000     0.000     0.000     0.000      107        0       42       25        5       42       14     5.807       25     21.3    1.239   -9.900     0.48    0.000    0.000       26        9     2033  Maize_Short_Soroca_6June_NonOptimum_26_MOHC.PRM
  Tot(54)        6        6     2034    247.5    511.7   1405.1   436.00      0.0    236.1     11.4     21.6      0.0    145.8       67    258.6    199.8       89     0.000     0.000     0.000     0.000      107        0       42       25        8        6        6    14.670       65     40.2    5.890   -9.900     1.46    0.000    0.000       26        9     2034  Maize_Short_Soroca_6June_NonOptimum_26_MOHC.PRM
  Tot(55)        6        6     2035     80.4    640.2   1525.2   437.00      0.0     80.4      0.0      0.0      0.0    110.9       26    162.2    132.4       77     0.000     0.000     0.000     0.000       88        0       42       25        1       35       18     6.549       28     25.2    1.650   -9.900     0.62    0.000    0.000       26        9     2035  Maize_Short_Soroca_6June_NonOptimum_26_MOHC.PRM
  Tot(56)        6        6     2036    105.6    700.9   1573.6   438.00      0.0    104.0      1.6      2.1      0.0    125.5       24    155.9    128.2       78     0.000     0.000     0.000     0.000       98        0       42       25        6       39       16     6.026       26     34.5    2.076   -9.900     0.78    0.000    0.000       26        9     2036  Maize_Short_Soroca_6June_NonOptimum_26_MOHC.PRM
  Tot(57)        6        6     2037     63.8    706.4   1633.5   438.00      0.0     63.2      0.6      0.0      0.0    101.0       20    160.0    130.7       76     0.000     0.000     0.000     0.000       90        0       42       25        2       36       18     6.499       27     27.2    1.765   -9.900     0.68    0.000    0.000       26        9     2037  Maize_Short_Soroca_6June_NonOptimum_26_MOHC.PRM
  Tot(58)        6        6     2038    132.2    543.6   1383.9   439.00      0.0    125.2      7.0     22.9      0.0    123.1       41    178.2    141.7       77     0.000     0.000     0.000     0.000       97        0       42       25        5       26       18     9.002       39     34.2    3.078   -9.900     1.04    0.000    0.000       26        9     2038  Maize_Short_Soroca_6June_NonOptimum_26_MOHC.PRM
  Tot(59)        6        6     2039     52.9    713.1   1625.2   440.00      0.0     52.9      0.0      0.0      0.0     85.2       16    156.2    128.9       81     0.000     0.000     0.000     0.000      100        0       42       25        5       40       15     6.270       27     36.5    2.291   -9.900     0.96    0.000    0.000       26        9     2039  Maize_Short_Soroca_6June_NonOptimum_26_MOHC.PRM
  Tot(60)        6        6     2040     54.9    707.8   1596.4   440.00      0.0     54.6      0.3      1.2      0.0     85.8       17    159.5    130.6       77     0.000     0.000     0.000     0.000       96        0       42       25        1       37       16     6.486       27     31.3    2.031   -9.900     0.87    0.000    0.000       26        9     2040  Maize_Short_Soroca_6June_NonOptimum_26_MOHC.PRM
  Tot(61)        6        6     2041     65.0    711.2   1565.1   441.00      0.0     64.9      0.1      0.0      0.0    100.1       19    154.1    125.9       77     0.000     0.000     0.000     0.000       87        0       42       25        1       38       18     6.040       26     24.1    1.457   -9.900     0.61    0.000    0.000       26        9     2041  Maize_Short_Soroca_6June_NonOptimum_26_MOHC.PRM
  Tot(62)        6        6     2042     99.3    554.0   1461.7   441.00      0.0     99.2      0.1      0.0      0.0     85.7       33    236.5    185.5       80     0.000     0.000     0.000     0.000      107        0       42       25        3       15       19    12.389       51     39.6    4.906   -9.900     1.52    0.000    0.000       26        9     2042  Maize_Short_Soroca_6June_NonOptimum_26_MOHC.PRM
  Tot(63)        6        6     2043     81.6    648.4   1542.2   441.00      0.0     76.0      5.6      5.8      0.0     92.2       20    150.0    123.1       78     0.000     0.000     0.000     0.000       90        0       42       25        2       39       17     5.731       26     26.3    1.506   -9.900     0.66    0.000    0.000       26        9     2043  Maize_Short_Soroca_6June_NonOptimum_26_MOHC.PRM
  Tot(64)        6        6     2044    189.8    582.5   1485.9   442.00      0.0    176.6     13.2     14.3      0.0    172.7       52    193.6    153.8       78     0.000     0.000     0.000     0.000      100        0       42       25        6       25       19     9.336       42     37.2    3.473   -9.900     0.96    0.000    0.000       26        9     2044  Maize_Short_Soroca_6June_NonOptimum_26_MOHC.PRM
  Tot(65)        6        6     2045    206.2    542.8   1319.6   442.00      0.0    179.0     27.2      0.0      0.0    109.8       35    179.8    144.0       79     0.000     0.000     0.000     0.000      107        0       42       25       16       31       10     8.813       45     34.4    3.030   -9.900     1.05    0.000    0.000       26        9     2045  Maize_Short_Soroca_6June_NonOptimum_26_MOHC.PRM
  Tot(66)        6        6     2046     43.1    791.6   1742.0   442.00      0.0     43.1      0.0      0.0      0.0     81.7       12    151.4    126.3       86     0.000     0.000     0.000     0.000      107        0       42       25        6       43       13     5.989       26     27.8    1.667   -9.900     0.72    0.000    0.000       26        9     2046  Maize_Short_Soroca_6June_NonOptimum_26_MOHC.PRM
  Tot(67)        6        6     2047    111.7    673.0   1667.0   442.00      0.0    110.4      1.3      0.0      0.0    117.2       26    171.4    138.2       74     0.000     0.000     0.000     0.000      107        0       42       25        1       32       19     7.248       30     22.5    1.632   -9.900     0.57    0.000    0.000       26        9     2047  Maize_Short_Soroca_6June_NonOptimum_26_MOHC.PRM
  Tot(68)        6        6     2048    182.9    541.6   1380.1   442.00      0.0    180.9      2.0      0.8      0.0    127.5       45    243.4    192.3       93     0.000     0.000     0.000     0.000      107        0       42       25       12       18        6    13.618       64     40.4    5.505   -9.900     1.48    0.000    0.000       26        9     2048  Maize_Short_Soroca_6June_NonOptimum_26_MOHC.PRM
  Tot(69)        6        6     2049    245.2    544.6   1451.2   443.00      0.0    220.6     24.6     21.1      0.0    133.2       49    269.9    211.5       96     0.000     0.000     0.000     0.000      107        0       42       25        8       13        5    15.297       68     40.4    6.176   -9.900     1.53    0.000    0.000       26        9     2049  Maize_Short_Soroca_6June_NonOptimum_26_MOHC.PRM
  Tot(70)        6        6     2050    208.2    601.5   1542.7   443.00      0.0    200.7      7.5      0.6      0.0    152.9       39    198.7    161.6       86     0.000     0.000     0.000     0.000      107        0       42       25        6       36        8    10.102       44     40.8    4.119   -9.900     1.17    0.000    0.000       26        9     2050  Maize_Short_Soroca_6June_NonOptimum_26_MOHC.PRM
  Tot(71)        6        6     2051    135.4    649.5   1529.7   443.00      0.0    123.5     11.9     25.2      0.0    121.9       30    173.2    140.4       74     0.000     0.000     0.000     0.000       90        0       42       25        2       32       19     7.240       31     27.0    1.954   -9.900     0.67    0.000    0.000       26        9     2051  Maize_Short_Soroca_6June_NonOptimum_26_MOHC.PRM
  Tot(72)        6        6     2052    135.9    595.0   1569.8   443.00      0.0    135.5      0.4      0.0      0.0    136.1       40    200.3    158.9       79     0.000     0.000     0.000     0.000      107        0       42       25        4       25       18     9.395       40     40.2    3.774   -9.900     1.12    0.000    0.000       26        9     2052  Maize_Short_Soroca_6June_NonOptimum_26_MOHC.PRM
  Tot(73)        6        6     2053    132.8    594.7   1469.2   443.00      0.0    132.8      0.0      0.0      0.0    146.9       39    170.9    137.7       78     0.000     0.000     0.000     0.000      107        0       42       25       11       32       16     7.967       37     35.4    2.823   -9.900     0.89    0.000    0.000       26        9     2053  Maize_Short_Soroca_6June_NonOptimum_26_MOHC.PRM
  Tot(74)        6        6     2054     91.3    549.5   1386.9   443.00      0.0     90.4      0.9      0.0      0.0     98.7       31    200.6    159.9       84     0.000     0.000     0.000     0.000      105        0       42       25        7       24       17    10.609       46     40.2    4.263   -9.900     1.43    0.000    0.000       26        9     2054  Maize_Short_Soroca_6June_NonOptimum_26_MOHC.PRM
  Tot(75)        6        6     2055     96.3    633.4   1587.6   443.00      0.0     96.2      0.1      0.0      0.0     99.9       27    217.2    172.1       78     0.000     0.000     0.000     0.000      107        0       42       25        4       21       20    10.851       46     39.6    4.296   -9.900     1.35    0.000    0.000       26        9     2055  Maize_Short_Soroca_6June_NonOptimum_26_MOHC.PRM
  Tot(76)        6        6     2056    117.1    642.4   1536.2   442.00      0.0    107.6      9.5     10.4      0.0    105.4       27    182.8    147.6       73     0.000     0.000     0.000     0.000      107        0       42       25        6       33       18     7.973       35     40.3    3.214   -9.900     1.12    0.000    0.000       26        9     2056  Maize_Short_Soroca_6June_NonOptimum_26_MOHC.PRM
  Tot(77)        6        6     2057    144.8    667.9   1609.0   442.00      0.0    137.0      7.8     21.5      0.0    137.8       34    182.6    146.9       73     0.000     0.000     0.000     0.000       90        0       42       25        0       31       21     7.527       32     26.8    2.017   -9.900     0.64    0.000    0.000       26        9     2057  Maize_Short_Soroca_6June_NonOptimum_26_MOHC.PRM
  Tot(78)        6        6     2058     67.5    661.5   1553.5   442.00      0.0     67.1      0.4      0.0      0.0     90.0       21    176.9    142.1       75     0.000     0.000     0.000     0.000       92        0       42       25        3       30       19     7.570       34     29.0    2.194   -9.900     0.85    0.000    0.000       26        9     2058  Maize_Short_Soroca_6June_NonOptimum_26_MOHC.PRM
  Tot(79)        6        6     2059    131.5    634.0   1597.9   442.00      0.0    127.2      4.3      0.0      0.0     90.4       26    251.2    198.0       84     0.000     0.000     0.000     0.000      107        0       42       25        3       14       16    12.202       51     32.4    3.951   -9.900     1.16    0.000    0.000       26        9     2059  Maize_Short_Soroca_6June_NonOptimum_26_MOHC.PRM
  Tot(80)        6        6     2060     80.2    601.7   1497.4   442.00      0.0     79.9      0.3      0.0      0.0    101.1       28    179.2    143.3       75     0.000     0.000     0.000     0.000       94        0       42       25        1       28       19     8.350       35     31.3    2.612   -9.900     0.96    0.000    0.000       26        9     2060  Maize_Short_Soroca_6June_NonOptimum_26_MOHC.PRM
  Tot(81)        6        6     2061     79.3    596.9   1493.5   441.00      0.0     79.2      0.1      0.0      0.0    100.6       28    171.6    137.8       75     0.000     0.000     0.000     0.000       90        0       42       25        1       31       19     7.523       34     27.0    2.028   -9.900     0.78    0.000    0.000       26        9     2061  Maize_Short_Soroca_6June_NonOptimum_26_MOHC.PRM
  Tot(82)        6        6     2062    223.6    595.9   1496.0   441.00      0.0    196.8     26.8      0.0      0.0    128.3       38    228.6    181.9       85     0.000     0.000     0.000     0.000      107        0       42       25        8       23       11    11.438       51     40.3    4.613   -9.900     1.29    0.000    0.000       26        9     2062  Maize_Short_Soroca_6June_NonOptimum_26_MOHC.PRM
  Tot(83)        6        6     2063    121.1    598.3   1511.8   441.00      0.0    119.7      1.4      0.0      0.0    106.5       29    183.0    148.1       79     0.000     0.000     0.000     0.000      107        0       42       25        5       35       11     8.748       38     15.9    1.387   -9.900     0.48    0.000    0.000       26        9     2063  Maize_Short_Soroca_6June_NonOptimum_26_MOHC.PRM
  Tot(84)        6        6     2064    114.7    643.1   1533.3   440.00      0.0    109.3      5.4      0.0      0.0    102.4       24    180.4    147.6       81     0.000     0.000     0.000     0.000      107        0       42       25        6       39       10     7.888       35     40.0    3.157   -9.900     1.12    0.000    0.000       26        9     2064  Maize_Short_Soroca_6June_NonOptimum_26_MOHC.PRM
  Tot(85)        6        6     2065     86.7    676.6   1572.4   440.00      0.0     85.4      1.3      0.0      0.0     90.2       19    188.5    154.1       84     0.000     0.000     0.000     0.000      107        0       42       25        4       30       11     9.862       42     40.3    3.973   -9.900     1.43    0.000    0.000       26        9     2065  Maize_Short_Soroca_6June_NonOptimum_26_MOHC.PRM
  Tot(86)        6        6     2066    230.8    569.3   1437.2   440.00      0.0    191.9     38.9     13.1      0.0    121.7       39    232.4    184.3       89     0.000     0.000     0.000     0.000      107        0       42       25        8       28        5    13.012       59     40.8    5.312   -9.900     1.50    0.000    0.000       26        9     2066  Maize_Short_Soroca_6June_NonOptimum_26_MOHC.PRM
  Tot(87)        6        6     2067    253.0    585.0   1452.8   439.00      0.0    225.0     28.0      6.2      0.0     99.8       26    232.9    188.6       98     0.000     0.000     0.000     0.000      107        0       42       25        3       30        1    13.345       56     40.4    5.388   -9.900     1.62    0.000    0.000       26        9     2067  Maize_Short_Soroca_6June_NonOptimum_26_MOHC.PRM
  Tot(88)        6        6     2068    205.4    522.5   1394.5   439.00      0.0    190.8     14.6     23.7      0.0    136.8       55    246.9    194.0       88     0.000     0.000     0.000     0.000      107        0       42       25        4       18       11    14.253       60     40.3    5.739   -9.900     1.50    0.000    0.000       26        9     2068  Maize_Short_Soroca_6June_NonOptimum_26_MOHC.PRM
  Tot(89)        6        6     2069     65.8    651.3   1621.0   438.00      0.0     65.8      0.0      0.0      0.0     89.1       22    194.9    156.7       75     0.000     0.000     0.000     0.000      102        0       42       25        1       27       21     9.186       38     38.6    3.541   -9.900     1.25    0.000    0.000       26        9     2069  Maize_Short_Soroca_6June_NonOptimum_26_MOHC.PRM
  Tot(90)        6        6     2070    142.6    553.8   1434.7   437.00      0.0    139.9      2.7      0.0      0.0    122.8       40    224.3    178.3       88     0.000     0.000     0.000     0.000      107        0       42       25        8       30       11    12.362       55     40.8    5.040   -9.900     1.45    0.000    0.000       26        9     2070  Maize_Short_Soroca_6June_NonOptimum_26_MOHC.PRM
  Tot(91)        6        6     2071     90.1    571.4   1411.7   437.00      0.0     90.1      0.0      0.0      0.0    108.5       31    178.9    144.0       81     0.000     0.000     0.000     0.000      107        0       42       25        9       30       16     8.828       40     40.6    3.582   -9.900     1.25    0.000    0.000       26        9     2071  Maize_Short_Soroca_6June_NonOptimum_26_MOHC.PRM
  Tot(92)        6        6     2072     54.2    620.1   1497.2   436.00      0.0     54.2      0.0      0.0      0.0     79.6       21    190.1    151.9       77     0.000     0.000     0.000     0.000       99        0       42       25        2       24       19     9.358       40     35.8    3.347   -9.900     1.25    0.000    0.000       26        9     2072  Maize_Short_Soroca_6June_NonOptimum_26_MOHC.PRM
  Tot(93)        6        6     2073     39.3    686.7   1614.6   436.00      0.0     39.3      0.0      0.0      0.0     79.7       16    157.9    128.7       78     0.000     0.000     0.000     0.000       93        0       42       25        1       36       17     6.745       28     30.3    2.043   -9.900     0.86    0.000    0.000       26        9     2073  Maize_Short_Soroca_6June_NonOptimum_26_MOHC.PRM
  Tot(94)        6        6     2074     79.8    599.7   1441.9   435.00      0.0     79.8      0.0      0.0      0.0     99.0       28    179.6    143.0       75     0.000     0.000     0.000     0.000       92        0       42       25        4       27       19     8.051       34     28.9    2.330   -9.900     0.85    0.000    0.000       26        9     2074  Maize_Short_Soroca_6June_NonOptimum_26_MOHC.PRM
  Tot(95)        6        6     2075    140.6    532.5   1337.1   435.00      0.0    135.8      4.8      9.5      0.0    114.2       40    205.4    164.1       82     0.000     0.000     0.000     0.000      107        0       42       25       11       31       12    10.678       49     40.6    4.331   -9.900     1.35    0.000    0.000       26        9     2075  Maize_Short_Soroca_6June_NonOptimum_26_MOHC.PRM
  Tot(96)        6        6     2076     58.8    686.4   1603.3   434.00      0.0     58.1      0.7      2.1      0.0     89.8       18    150.1    123.1       78     0.000     0.000     0.000     0.000       89        0       42       25        0       39       17     5.804       26     25.2    1.465   -9.900     0.62    0.000    0.000       26        9     2076  Maize_Short_Soroca_6June_NonOptimum_26_MOHC.PRM
  Tot(97)        6        6     2077     36.5    693.3   1483.0   433.00      0.0     36.4      0.1      0.0      0.0     77.6       15    155.2    127.6       82     0.000     0.000     0.000     0.000       97        0       42       25        3       39       16     6.506       29     33.5    2.177   -9.900     0.94    0.000    0.000       26        9     2077  Maize_Short_Soroca_6June_NonOptimum_26_MOHC.PRM
  Tot(98)        6        6     2078    126.2    599.8   1551.7   433.00      0.0    121.5      4.7      5.8      0.0    130.7       39    189.6    150.5       74     0.000     0.000     0.000     0.000       93        0       42       25        0       24       20     8.785       38     29.7    2.613   -9.900     0.83    0.000    0.000       26        9     2078  Maize_Short_Soroca_6June_NonOptimum_26_MOHC.PRM
  Tot(99)        6        6     2079    108.2    601.5   1486.3   432.00      0.0    107.7      0.5      0.0      0.0    117.9       31    173.6    139.9       76     0.000     0.000     0.000     0.000      107        0       42       25        6       32       15     7.530       33     40.4    3.041   -9.900     1.04    0.000    0.000       26        9     2079  Maize_Short_Soroca_6June_NonOptimum_26_MOHC.PRM
 Tot(100)        6        6     2080     93.4    623.5   1501.9   432.00      0.0     93.3      0.1      0.0      0.0    105.7       26    171.3    139.1       79     0.000     0.000     0.000     0.000      107        0       42       25        4       36       14     7.743       33     40.6    3.141   -9.900     1.13    0.000    0.000       26        9     2080  Maize_Short_Soroca_6June_NonOptimum_26_MOHC.PRM
 Tot(101)        6        6     2081     34.4    707.8   1667.1   431.00      0.0     34.4      0.0      0.0      0.0     71.1       13    159.3    132.2       83     0.000     0.000     0.000     0.000      103        0       42       25        4       42       15     6.564       28     32.7    2.148   -9.900     0.94    0.000    0.000       26        9     2081  Maize_Short_Soroca_6June_NonOptimum_26_MOHC.PRM
 Tot(102)        6        6     2082     46.4    734.7   1719.0   431.00      0.0     46.4      0.0      0.0      0.0     85.0       16    149.1    122.3       75     0.000     0.000     0.000     0.000       88        0       42       25        0       39       18     5.537       23     24.1    1.336   -9.900     0.59    0.000    0.000       26        9     2082  Maize_Short_Soroca_6June_NonOptimum_26_MOHC.PRM
 Tot(103)        6        6     2083    116.7    629.7   1586.2   430.00      0.0    116.2      0.5      0.0      0.0    122.3       28    194.5    159.0       86     0.000     0.000     0.000     0.000      107        0       42       25        2       39       11     9.721       40     40.8    3.968   -9.900     1.25    0.000    0.000       26        9     2083  Maize_Short_Soroca_6June_NonOptimum_26_MOHC.PRM
 Tot(104)        6        6     2084     95.0    694.2   1661.2   429.00      0.0     91.8      3.2      2.2      0.0    123.4       25    154.7    126.8       76     0.000     0.000     0.000     0.000       89        0       42       25        1       38       18     5.940       26     25.2    1.496   -9.900     0.54    0.000    0.000       26        9     2084  Maize_Short_Soroca_6June_NonOptimum_26_MOHC.PRM
 Tot(105)        6        6     2085     77.0    648.5   1660.7   429.00      0.0     77.0      0.0      0.0      0.0    100.7       23    170.5    138.2       77     0.000     0.000     0.000     0.000       93        0       42       25        2       32       18     7.471       30     30.2    2.253   -9.900     0.87    0.000    0.000       26        9     2085  Maize_Short_Soroca_6June_NonOptimum_26_MOHC.PRM
 Tot(106)        6        6     2086    147.3    599.7   1489.0   428.00      0.0    146.5      0.8      0.0      0.0    126.6       39    222.3    176.6       78     0.000     0.000     0.000     0.000      107        0       42       25        5       28       15    10.926       47     40.5    4.422   -9.900     1.27    0.000    0.000       26        9     2086  Maize_Short_Soroca_6June_NonOptimum_26_MOHC.PRM
 Tot(107)        6        6     2087    164.9    603.3   1559.2   428.00      0.0    161.5      3.4      0.0      0.0    111.6       32    247.5    195.9       89     0.000     0.000     0.000     0.000      107        0       42       25        6       22        8    13.284       58     40.8    5.420   -9.900     1.51    0.000    0.000       26        9     2087  Maize_Short_Soroca_6June_NonOptimum_26_MOHC.PRM
 Tot(108)        6        6     2088    204.3    550.4   1407.2   427.00      0.0    199.3      5.0      0.2      0.0    131.5       47    226.1    179.1       84     0.000     0.000     0.000     0.000      107        0       42       25       11       26        8    11.478       54     36.5    4.186   -9.900     1.17    0.000    0.000       26        9     2088  Maize_Short_Soroca_6June_NonOptimum_26_MOHC.PRM
 Tot(109)        6        6     2089    167.6    543.8   1459.9   427.00      0.0    166.4      1.2      0.0      0.0    136.6       49    236.2    185.4       87     0.000     0.000     0.000     0.000      107        0       42       25        6       17       12    13.252       58     40.5    5.363   -9.900     1.44    0.000    0.000       26        9     2089  Maize_Short_Soroca_6June_NonOptimum_26_MOHC.PRM
 Tot(110)        6        6     2090    106.6    685.8   1627.6   426.00      0.0    106.6      0.0      0.0      0.0    129.9       28    170.9    139.1       76     0.000     0.000     0.000     0.000       94        0       42       25        1       33       18     7.411       33     31.2    2.313   -9.900     0.80    0.000    0.000       26        9     2090  Maize_Short_Soroca_6June_NonOptimum_26_MOHC.PRM
 Tot(111)        6        6     2091    229.2    480.9   1358.8   425.00      0.0    223.0      6.2      0.0      0.0    114.7       44    227.0    177.4      100     0.000     0.000     0.000     0.000      107        0       42       25       11        9        0    15.194       72     40.3    6.123   -9.900     1.79    0.000    0.000       26        9     2091  Maize_Short_Soroca_6June_NonOptimum_26_MOHC.PRM
 Tot(112)        6        6     2092     91.4    591.7   1462.7   425.00      0.0     91.0      0.4      0.0      0.0     98.7       29    177.0    141.3       73     0.000     0.000     0.000     0.000       90        0       42       25        2       29       20     7.724       35     26.8    2.069   -9.900     0.80    0.000    0.000       26        9     2092  Maize_Short_Soroca_6June_NonOptimum_26_MOHC.PRM
 Tot(113)        6        6     2093    143.3    611.9   1515.8   424.00      0.0    138.3      5.0      0.0      0.0    118.0       32    188.6    152.4       78     0.000     0.000     0.000     0.000      107        0       42       25        6       33       12     8.727       38     40.5    3.534   -9.900     1.15    0.000    0.000       26        9     2093  Maize_Short_Soroca_6June_NonOptimum_26_MOHC.PRM
 Tot(114)        6        6     2094    203.8    566.5   1382.6   424.00      0.0    162.0     41.8      0.0      0.0    110.9       34    182.9    146.5       75     0.000     0.000     0.000     0.000      107        0       42       25       11       28       13     8.894       42     40.3    3.588   -9.900     1.22    0.000    0.000       26        9     2094  Maize_Short_Soroca_6June_NonOptimum_26_MOHC.PRM
 Tot(115)        6        6     2095    184.8    655.9   1554.3   423.00      0.0    169.1     15.7      6.4      0.0    120.3       26    152.8    125.1       75     0.000     0.000     0.000     0.000       85        0       42       25        1       38       19     5.713       26     21.6    1.236   -9.900     0.49    0.000    0.000       26        9     2095  Maize_Short_Soroca_6June_NonOptimum_26_MOHC.PRM
 Tot(116)        6        6     2096     99.2    647.9   1652.9   423.00      0.0     98.6      0.6      0.0      0.0     98.6       23    198.0    159.2       81     0.000     0.000     0.000     0.000      107        0       42       25        1       31       13    10.201       42     40.2    4.105   -9.900     1.38    0.000    0.000       26        9     2096  Maize_Short_Soroca_6June_NonOptimum_26_MOHC.PRM
 Tot(117)        6        6     2097    193.0    569.9   1518.7   422.00      0.0    169.0     24.0      2.4      0.0    112.5       38    203.4    161.6       77     0.000     0.000     0.000     0.000       96        0       42       25        1       20       20     9.456       41     32.8    3.106   -9.900     1.00    0.000    0.000       26        9     2097  Maize_Short_Soroca_6June_NonOptimum_26_MOHC.PRM
 Tot(118)        6        6     2098     65.8    619.1   1457.1   422.00      0.0     65.8      0.0      0.0      0.0     95.9       26    180.5    143.9       76     0.000     0.000     0.000     0.000       95        0       42       25        2       26       19     8.551       37     31.9    2.732   -9.900     1.03    0.000    0.000       26        9     2098  Maize_Short_Soroca_6June_NonOptimum_26_MOHC.PRM
 Tot(119)        6        6     2099     45.0    778.5   1692.7   421.00      0.0     45.0      0.0      0.0      0.0     84.1       13    147.1    122.0       82     0.000     0.000     0.000     0.000      100        0       42       25        1       42       14     5.418       24     15.3    0.831   -9.900     0.37    0.000    0.000       26        9     2099  Maize_Short_Soroca_6June_NonOptimum_26_MOHC.PRM
