AquaCrop 7.0 (August 2022) - Output created on (date) : 24-11-2022   at (time) : 10:18:35

    RunNr     Day1   Month1    Year1     Rain      ETo       GD     CO2      Irri   Infilt   Runoff    Drain   Upflow        E     E/Ex       Tr      TrW   Tr/Trx    SaltIn   SaltOut    SaltUp  SaltProf     Cycle   SaltStr  FertStr  WeedStr  TempStr   ExpStr   StoStr  BioMass  Brelative   HI    Y(dry)  Y(fresh)    WPet      Bin     Bout     DayN   MonthN    YearN
                                           mm       mm  degC.day    ppm        mm       mm       mm       mm       mm       mm        %       mm       mm        %    ton/ha    ton/ha    ton/ha    ton/ha      days       %        %        %        %        %        %    ton/ha        %       %    ton/ha   ton/ha    kg/m3   ton/ha   ton/ha
   Tot(1)        7        5     1981    150.4    483.8   1212.1   340.11      0.0    145.9      4.5     12.1      0.0     84.3       41    248.4    247.5       87     0.000     0.000     0.000     0.000      107        0        0        0       12        5        9    17.662       82     39.6    7.001   -9.900     2.10    0.000    0.000       27        8     1981  Maize_short_Chisinau_7May_Optimum_26_MPI.PRM
   Tot(2)        7        5     1982    192.0    471.0   1188.7   341.22      0.0    191.9      0.1      0.0      0.0     76.4       35    258.6    256.9      100     0.000     0.000     0.000     0.000      107        0        0        0       11        2        0    20.631       96     40.0    8.253   -9.900     2.46    0.000    0.000       27        8     1982  Maize_short_Chisinau_7May_Optimum_26_MPI.PRM
   Tot(3)        7        5     1983    269.2    465.2   1233.5   342.84      0.0    253.3     15.9     23.6      0.0     99.3       48    261.7    261.5      100     0.000     0.000     0.000     0.000      107        0        0        0        9        2        0    20.707       97     40.1    8.297   -9.900     2.30    0.000    0.000       27        8     1983  Maize_short_Chisinau_7May_Optimum_26_MPI.PRM
   Tot(4)        7        5     1984    239.1    438.2   1067.3   344.40      0.0    237.1      2.0      2.8      0.0    134.8       75    245.6    247.7      100     0.000     0.000     0.000     0.000      107        0        0        0       17        0        0    19.708       98     40.0    7.884   -9.900     2.07    0.000    0.000       27        8     1984  Maize_short_Chisinau_7May_Optimum_26_MPI.PRM
   Tot(5)        7        5     1985    292.8    461.8   1172.6   345.87      0.0    263.1     29.7     63.0      0.0    102.2       53    265.5    262.7      100     0.000     0.000     0.000     0.000      107        0        0        0       13        0        0    20.320       97     40.0    8.128   -9.900     2.21    0.000    0.000       27        8     1985  Maize_short_Chisinau_7May_Optimum_26_MPI.PRM
   Tot(6)        7        5     1986    172.4    527.7   1261.6   347.19      0.0    171.9      0.5      0.0      0.0     89.5       39    281.4    282.2       93     0.000     0.000     0.000     0.000      107        0        0        0        8        5        4    19.208       89     40.0    7.686   -9.900     2.07    0.000    0.000       27        8     1986  Maize_short_Chisinau_7May_Optimum_26_MPI.PRM
   Tot(7)        7        5     1987    259.6    481.6   1137.9   348.98      0.0    253.3      6.3      0.0      0.0    110.0       59    294.0    293.3      100     0.000     0.000     0.000     0.000      107        0        0        0       15        3        0    20.410       97     40.2    8.196   -9.900     2.03    0.000    0.000       27        8     1987  Maize_short_Chisinau_7May_Optimum_26_MPI.PRM
   Tot(8)        7        5     1988    236.3    471.5   1252.6   351.45      0.0    227.3      9.0     15.1      0.0    121.2       71    286.2    289.1       93     0.000     0.000     0.000     0.000      107        0        0        0        9        3        5    20.036       90     39.9    8.003   -9.900     1.96    0.000    0.000       27        8     1988  Maize_short_Chisinau_7May_Optimum_26_MPI.PRM
   Tot(9)        7        5     1989    210.4    486.7   1164.0   352.89      0.0    207.5      2.9      2.5      0.0     95.5       49    291.8    290.7       99     0.000     0.000     0.000     0.000      107        0        0        0       14        3        1    20.905       96     40.2    8.402   -9.900     2.17    0.000    0.000       27        8     1989  Maize_short_Chisinau_7May_Optimum_26_MPI.PRM
  Tot(10)        7        5     1990    161.6    507.1   1149.5   354.16      0.0    158.4      3.2      2.2      0.0    115.0       55    257.2    258.0       86     0.000     0.000     0.000     0.000      107        0        0        0       16        5       11    17.797       80     39.9    7.104   -9.900     1.91    0.000    0.000       27        8     1990  Maize_short_Chisinau_7May_Optimum_26_MPI.PRM
  Tot(11)        7        5     1991    438.7    420.7   1183.0   355.48      0.0    393.0     45.7     66.9      0.0    123.6       82    281.3    280.7      100     0.000     0.000     0.000     0.000      107        0        0        0       17        0        0    22.290       98     40.0    8.918   -9.900     2.20    0.000    0.000       27        8     1991  Maize_short_Chisinau_7May_Optimum_26_MPI.PRM
  Tot(12)        7        5     1992    191.1    523.2   1230.9   356.27      0.0    188.5      2.6      5.7      0.0    128.5       66    273.6    274.3       83     0.000     0.000     0.000     0.000      107        0        0        0       16        4       13    17.580       78     39.5    6.943   -9.900     1.73    0.000    0.000       27        8     1992  Maize_short_Chisinau_7May_Optimum_26_MPI.PRM
  Tot(13)        7        5     1993    202.8    503.8   1154.4   356.95      0.0    196.6      6.2     19.9      0.0    106.9       53    274.0    273.7       93     0.000     0.000     0.000     0.000      107        0        0        0       13        3        5    18.764       90     39.9    7.490   -9.900     1.97    0.000    0.000       27        8     1993  Maize_short_Chisinau_7May_Optimum_26_MPI.PRM
  Tot(14)        7        5     1994    258.9    536.5   1263.4   358.63      0.0    219.5     39.4      7.8      0.0    105.8       45    256.5    257.4       84     0.000     0.000     0.000     0.000      107        0        0        0       10       11       11    16.407       72     39.7    6.516   -9.900     1.80    0.000    0.000       27        8     1994  Maize_short_Chisinau_7May_Optimum_26_MPI.PRM
  Tot(15)        7        5     1995    186.0    502.8   1281.6   360.62      0.0    184.0      2.0      2.1      0.0     91.1       44    283.7    282.9       91     0.000     0.000     0.000     0.000      107        0        0        0        8        6        6    20.100       87     40.1    8.059   -9.900     2.15    0.000    0.000       27        8     1995  Maize_short_Chisinau_7May_Optimum_26_MPI.PRM
  Tot(16)        7        5     1996    148.0    541.5   1272.6   362.37      0.0    147.1      0.9      0.0      0.0    101.4       38    231.0    231.1       85     0.000     0.000     0.000     0.000      107        0        0        0       10       18       10    15.398       70     40.5    6.235   -9.900     1.88    0.000    0.000       27        8     1996  Maize_short_Chisinau_7May_Optimum_26_MPI.PRM
  Tot(17)        7        5     1997    305.0    448.8   1194.3   363.47      0.0    288.7     16.3      0.0      0.0     83.2       41    258.3    258.7      100     0.000     0.000     0.000     0.000      107        0        0        0       12        3        0    21.670       96     40.0    8.675   -9.900     2.54    0.000    0.000       27        8     1997  Maize_short_Chisinau_7May_Optimum_26_MPI.PRM
  Tot(18)        7        5     1998    210.4    488.7   1249.2   366.50      0.0    205.7      4.7     10.9      0.0    111.7       61    290.0    289.0       94     0.000     0.000     0.000     0.000      107        0        0        0       14        1        5    20.335       91     39.9    8.123   -9.900     2.02    0.000    0.000       27        8     1998  Maize_short_Chisinau_7May_Optimum_26_MPI.PRM
  Tot(19)        7        5     1999    158.4    516.7   1334.1   368.14      0.0    157.0      1.4      0.0      0.0    100.6       45    268.0    268.6       87     0.000     0.000     0.000     0.000      107        0        0        0        8        7       10    18.415       79     40.1    7.384   -9.900     2.00    0.000    0.000       27        8     1999  Maize_short_Chisinau_7May_Optimum_26_MPI.PRM
  Tot(20)        7        5     2000    167.4    572.2   1257.5   369.41      0.0    163.5      3.9      0.0      0.0     68.3       25    276.6    277.2       91     0.000     0.000     0.000     0.000      107        0        0        0       11       15        6    17.921       82     40.2    7.199   -9.900     2.09    0.000    0.000       27        8     2000  Maize_short_Chisinau_7May_Optimum_26_MPI.PRM
  Tot(21)        7        5     2001    210.4    518.6   1269.3   371.07      0.0    189.0     21.4     20.8      0.0    114.9       57    275.9    275.6       85     0.000     0.000     0.000     0.000      107        0        0        0       13        2       12    18.703       81     39.6    7.401   -9.900     1.89    0.000    0.000       27        8     2001  Maize_short_Chisinau_7May_Optimum_26_MPI.PRM
  Tot(22)        7        5     2002    285.3    517.8   1347.8   373.16      0.0    259.1     26.2      0.0      0.0    101.6       45    297.0    295.1       96     0.000     0.000     0.000     0.000      107        0        0        0        7       18        2    20.670       88     40.9    8.454   -9.900     2.12    0.000    0.000       27        8     2002  Maize_short_Chisinau_7May_Optimum_26_MPI.PRM
  Tot(23)        7        5     2003    186.5    574.0   1346.0   375.80      0.0    185.1      1.4      0.0      0.0     79.3       27    298.2    298.3       98     0.000     0.000     0.000     0.000      107        0        0        0        6       10        1    20.664       90     40.1    8.283   -9.900     2.19    0.000    0.000       27        8     2003  Maize_short_Chisinau_7May_Optimum_26_MPI.PRM
  Tot(24)        7        5     2004    218.3    504.4   1151.0   377.49      0.0    209.4      8.9      0.0      0.0    107.5       51    288.6    288.6       96     0.000     0.000     0.000     0.000      107        0        0        0       16       11        3    20.363       90     40.3    8.212   -9.900     2.07    0.000    0.000       27        8     2004  Maize_short_Chisinau_7May_Optimum_26_MPI.PRM
  Tot(25)        7        5     2005    328.8    485.2   1234.8   379.80      0.0    312.1     16.7     20.4      0.0    126.4       64    298.8    298.4      100     0.000     0.000     0.000     0.000      107        0        0        0       10        1        0    22.452       97     40.1    8.997   -9.900     2.12    0.000    0.000       27        8     2005  Maize_short_Chisinau_7May_Optimum_26_MPI.PRM
  Tot(26)        7        5     2006    272.0    533.8   1259.8   381.90      0.0    265.7      6.3      5.5      0.0    142.1       70    318.0    318.5       94     0.000     0.000     0.000     0.000      107        0        0        0       10        4        5    20.866       90     40.2    8.391   -9.900     1.82    0.000    0.000       27        8     2006  Maize_short_Chisinau_7May_Optimum_26_MPI.PRM
  Tot(27)        7        5     2007    144.6    648.6   1473.6   383.77      0.0    144.1      0.5      0.0      0.0    103.1       31    250.0    251.3       78     0.000     0.000     0.000     0.000      107        0        0        0        2       20       16    14.065       59     40.1    5.642   -9.900     1.60    0.000    0.000       27        8     2007  Maize_short_Chisinau_7May_Optimum_26_MPI.PRM
  Tot(28)        7        5     2008    177.3    560.5   1291.6   385.59      0.0    172.8      4.5      0.0      0.0     88.5       38    300.9    300.8       88     0.000     0.000     0.000     0.000      107        0        0        0        6       10        9    19.421       82     40.2    7.814   -9.900     2.01    0.000    0.000       27        8     2008  Maize_short_Chisinau_7May_Optimum_26_MPI.PRM
  Tot(29)        7        5     2009    161.5    583.3   1333.2   387.37      0.0    160.0      1.5      0.0      0.0     86.6       33    293.0    292.9       86     0.000     0.000     0.000     0.000      107        0        0        0        6       10       11    18.297       78     39.9    7.298   -9.900     1.92    0.000    0.000       27        8     2009  Maize_short_Chisinau_7May_Optimum_26_MPI.PRM
  Tot(30)        7        5     2010    248.4    518.6   1414.0   389.85      0.0    235.0     13.4      0.2      0.0    121.5       59    315.2    314.2       96     0.000     0.000     0.000     0.000      107        0        0        0        7        1        3    21.891       93     40.0    8.751   -9.900     2.00    0.000    0.000       27        8     2010  Maize_short_Chisinau_7May_Optimum_26_MPI.PRM
  Tot(31)        7        5     2011    234.3    546.6   1320.9   391.63      0.0    220.0     14.3      7.4      0.0    112.6       48    306.3    306.6       95     0.000     0.000     0.000     0.000      107        0        0        0        6        2        4    20.849       91     40.0    8.336   -9.900     1.99    0.000    0.000       27        8     2011  Maize_short_Chisinau_7May_Optimum_26_MPI.PRM
  Tot(32)        7        5     2012    192.6    618.6   1442.0   393.82      0.0    189.8      2.8      1.7      0.0    129.4       45    271.7    271.9       80     0.000     0.000     0.000     0.000      107        0        0        0        6       19       15    15.612       66     40.0    6.249   -9.900     1.56    0.000    0.000       27        8     2012  Maize_short_Chisinau_7May_Optimum_26_MPI.PRM
  Tot(33)        7        5     2013    286.6    541.7   1380.1   396.48      0.0    259.3     27.3      1.1      0.0    118.5       54    322.6    323.2       94     0.000     0.000     0.000     0.000      107        0        0        0        4        2        4    21.875       91     39.9    8.734   -9.900     1.98    0.000    0.000       27        8     2013  Maize_short_Chisinau_7May_Optimum_26_MPI.PRM
  Tot(34)        7        5     2014    244.6    539.8   1326.2   398.55      0.0    239.3      5.3      8.4      0.0    121.7       59    306.3    304.5       90     0.000     0.000     0.000     0.000      107        0        0        0        7        6        8    20.050       85     40.0    8.017   -9.900     1.87    0.000    0.000       27        8     2014  Maize_short_Chisinau_7May_Optimum_26_MPI.PRM
  Tot(35)        7        5     2015    123.0    600.5   1355.8   401.00      0.0    122.8      0.2      0.3      0.0     77.9       29    262.6    264.9       79     0.000     0.000     0.000     0.000      107        0        0        0        6       10       16    16.123       69     39.5    6.365   -9.900     1.87    0.000    0.000       27        8     2015  Maize_short_Chisinau_7May_Optimum_26_MPI.PRM
  Tot(36)        7        5     2016    255.7    540.8   1325.7   403.00      0.0    238.9     16.8     33.2      0.0    141.5       73    285.1    284.7       81     0.000     0.000     0.000     0.000      107        0        0        0       10        5       15    17.832       75     39.7    7.078   -9.900     1.66    0.000    0.000       27        8     2016  Maize_short_Chisinau_7May_Optimum_26_MPI.PRM
  Tot(37)        7        5     2017    299.1    552.7   1316.4   405.00      0.0    280.2     18.9     14.6      0.0    112.9       53    345.6    343.8       98     0.000     0.000     0.000     0.000      107        0        0        0        9        2        1    22.546       95     40.1    9.033   -9.900     1.97    0.000    0.000       27        8     2017  Maize_short_Chisinau_7May_Optimum_26_MPI.PRM
  Tot(38)        7        5     2018    279.9    546.1   1430.7   408.00      0.0    265.8     14.1      6.4      0.0    100.9       42    319.5    318.9      100     0.000     0.000     0.000     0.000      107        0        0        0        5        2        0    22.754       96     40.0    9.102   -9.900     2.16    0.000    0.000       27        8     2018  Maize_short_Chisinau_7May_Optimum_26_MPI.PRM
  Tot(39)        7        5     2019    233.9    552.0   1390.8   410.00      0.0    225.8      8.1     15.5      0.0    132.2       61    296.4    298.7       87     0.000     0.000     0.000     0.000      107        0        0        0        3        9       10    19.440       81     40.1    7.804   -9.900     1.82    0.000    0.000       27        8     2019  Maize_short_Chisinau_7May_Optimum_26_MPI.PRM
  Tot(40)        7        5     2020    281.4    444.4   1104.5   412.00      0.0    256.5     24.9     28.1      0.0     99.2       60    273.3    274.3       98     0.000     0.000     0.000     0.000      107        0        0        0       16        1        2    21.118       95     40.0    8.452   -9.900     2.27    0.000    0.000       27        8     2020  Maize_short_Chisinau_7May_Optimum_26_MPI.PRM
  Tot(41)        7        5     2021    172.5    464.3   1037.5   414.00      0.0    170.3      2.2      0.0      0.0     82.9       44    268.7    265.9      100     0.000     0.000     0.000     0.000      107        0        0        0       23        7        0    20.770       95     40.5    8.406   -9.900     2.39    0.000    0.000       27        8     2021  Maize_short_Chisinau_7May_Optimum_26_MPI.PRM
  Tot(42)        7        5     2022    204.8    455.3   1081.4   417.00      0.0    198.8      6.0     17.8      0.0    107.1       71    276.4    278.1       93     0.000     0.000     0.000     0.000      107        0        0        0       23        1        5    19.994       91     39.9    7.987   -9.900     2.08    0.000    0.000       27        8     2022  Maize_short_Chisinau_7May_Optimum_26_MPI.PRM
  Tot(43)        7        5     2023    154.9    586.6   1303.9   419.00      0.0    154.7      0.2      0.0      0.0    118.5       43    249.7    250.3       82     0.000     0.000     0.000     0.000      107        0        0        0        6       14       15    15.940       70     40.1    6.389   -9.900     1.74    0.000    0.000       27        8     2023  Maize_short_Chisinau_7May_Optimum_26_MPI.PRM
  Tot(44)        7        5     2024    203.6    488.8   1105.7   421.00      0.0    195.7      7.9     18.1      0.0    124.1       66    262.0    262.1       91     0.000     0.000     0.000     0.000      107        0        0        0       17        3        6    19.178       87     39.9    7.650   -9.900     1.98    0.000    0.000       27        8     2024  Maize_short_Chisinau_7May_Optimum_26_MPI.PRM
  Tot(45)        7        5     2025    257.4    482.9   1171.8   423.00      0.0    245.1     12.3     17.4      0.0    100.6       51    280.0    279.0       96     0.000     0.000     0.000     0.000      107        0        0        0       14       12        3    20.698       90     40.3    8.341   -9.900     2.19    0.000    0.000       27        8     2025  Maize_short_Chisinau_7May_Optimum_26_MPI.PRM
  Tot(46)        7        5     2026    110.1    538.3   1120.3   424.00      0.0    110.0      0.1      0.0      0.0     74.4       32    254.8    255.3       85     0.000     0.000     0.000     0.000      107        0        0        0       17        9       10    17.465       79     39.9    6.969   -9.900     2.12    0.000    0.000       27        8     2026  Maize_short_Chisinau_7May_Optimum_26_MPI.PRM
  Tot(47)        7        5     2027    160.7    449.4   1061.5   426.00      0.0    158.9      1.8      0.0      0.0     75.8       42    258.1    255.7      100     0.000     0.000     0.000     0.000      107        0        0        0       18        2        0    20.579       96     40.0    8.242   -9.900     2.47    0.000    0.000       27        8     2027  Maize_short_Chisinau_7May_Optimum_26_MPI.PRM
  Tot(48)        7        5     2028    323.3    412.4    943.6   428.00      0.0    301.8     21.5     29.8      0.0    122.4       72    222.3    223.4      100     0.000     0.000     0.000     0.000      107        0        0        0       24        0        0    19.281       97     40.0    7.713   -9.900     2.24    0.000    0.000       27        8     2028  Maize_short_Chisinau_7May_Optimum_26_MPI.PRM
  Tot(49)        7        5     2029    167.5    449.8   1052.5   429.00      0.0    161.4      6.1      0.0      0.0     97.8       57    255.9    256.4       97     0.000     0.000     0.000     0.000      107        0        0        0       20        1        2    20.261       94     40.0    8.102   -9.900     2.29    0.000    0.000       27        8     2029  Maize_short_Chisinau_7May_Optimum_26_MPI.PRM
  Tot(50)        7        5     2030    184.4    515.2   1200.3   431.00      0.0    181.2      3.2     10.0      0.0    110.5       61    281.9    283.1       85     0.000     0.000     0.000     0.000      107        0        0        0       14        1       11    18.895       83     39.6    7.482   -9.900     1.91    0.000    0.000       27        8     2030  Maize_short_Chisinau_7May_Optimum_26_MPI.PRM
  Tot(51)        7        5     2031    229.6    480.7   1151.1   432.00      0.0    215.8     13.8     19.7      0.0    110.8       54    271.2    269.9       99     0.000     0.000     0.000     0.000      107        0        0        0       13        9        1    21.465       94     40.3    8.649   -9.900     2.26    0.000    0.000       27        8     2031  Maize_short_Chisinau_7May_Optimum_26_MPI.PRM
  Tot(52)        7        5     2032    313.6    445.8   1021.1   433.00      0.0    261.8     51.8     60.2      0.0    106.8       68    274.6    274.1       99     0.000     0.000     0.000     0.000      107        0        0        0       22        0        0    21.304       97     40.0    8.528   -9.900     2.24    0.000    0.000       27        8     2032  Maize_short_Chisinau_7May_Optimum_26_MPI.PRM
  Tot(53)        7        5     2033    200.4    457.3   1051.5   435.00      0.0    196.2      4.2      2.5      0.0     70.8       34    237.0    237.0      100     0.000     0.000     0.000     0.000      107        0        0        0       17        3        0    20.374       96     40.0    8.154   -9.900     2.65    0.000    0.000       27        8     2033  Maize_short_Chisinau_7May_Optimum_26_MPI.PRM
  Tot(54)        7        5     2034    172.8    529.2   1201.4   436.00      0.0    170.7      2.1      0.0      0.0     93.9       42    276.1    276.5       90     0.000     0.000     0.000     0.000      107        0        0        0       13        7        7    19.257       82     40.1    7.713   -9.900     2.08    0.000    0.000       27        8     2034  Maize_short_Chisinau_7May_Optimum_26_MPI.PRM
  Tot(55)        7        5     2035    171.9    503.5   1114.6   437.00      0.0    167.2      4.7     11.7      0.0     94.2       51    277.1    278.0       90     0.000     0.000     0.000     0.000      107        0        0        0       15        4        7    19.639       87     40.0    7.853   -9.900     2.12    0.000    0.000       27        8     2035  Maize_short_Chisinau_7May_Optimum_26_MPI.PRM
  Tot(56)        7        5     2036    212.2    469.7   1154.0   438.00      0.0    210.2      2.0      6.1      0.0    113.3       61    276.9    275.6       99     0.000     0.000     0.000     0.000      107        0        0        0       15        3        1    21.551       96     40.2    8.656   -9.900     2.22    0.000    0.000       27        8     2036  Maize_short_Chisinau_7May_Optimum_26_MPI.PRM
  Tot(57)        7        5     2037    200.0    466.9   1090.4   438.00      0.0    192.5      7.5      5.8      0.0     86.0       42    251.9    252.4      100     0.000     0.000     0.000     0.000      107        0        0        0       17        2        0    21.074       96     40.1    8.447   -9.900     2.50    0.000    0.000       27        8     2037  Maize_short_Chisinau_7May_Optimum_26_MPI.PRM
  Tot(58)        7        5     2038    188.4    463.3   1122.0   439.00      0.0    178.1     10.3     11.3      0.0     82.7       43    267.6    267.4       99     0.000     0.000     0.000     0.000      107        0        0        0       16        6        1    21.564       96     40.4    8.718   -9.900     2.49    0.000    0.000       27        8     2038  Maize_short_Chisinau_7May_Optimum_26_MPI.PRM
  Tot(59)        7        5     2039    194.2    553.5   1165.0   440.00      0.0    183.3     10.9      1.5      0.0     96.7       41    249.5    251.0       82     0.000     0.000     0.000     0.000      107        0        0        0       13       15       11    15.914       69     40.3    6.420   -9.900     1.85    0.000    0.000       27        8     2039  Maize_short_Chisinau_7May_Optimum_26_MPI.PRM
  Tot(60)        7        5     2040    139.2    514.2   1140.0   440.00      0.0    139.2      0.0      0.0      0.0     89.6       44    264.9    265.0       90     0.000     0.000     0.000     0.000      107        0        0        0       17        5        9    18.775       85     39.9    7.491   -9.900     2.11    0.000    0.000       27        8     2040  Maize_short_Chisinau_7May_Optimum_26_MPI.PRM
  Tot(61)        7        5     2041    105.8    598.7   1211.6   441.00      0.0    103.7      2.1      0.0      0.0     87.7       32    237.6    238.0       77     0.000     0.000     0.000     0.000      107        0        0        0       12        7       19    14.791       63     39.0    5.766   -9.900     1.77    0.000    0.000       27        8     2041  Maize_short_Chisinau_7May_Optimum_26_MPI.PRM
  Tot(62)        7        5     2042    292.4    467.0   1161.4   441.00      0.0    267.2     25.2      0.0      0.0    104.6       49    254.1    253.6      100     0.000     0.000     0.000     0.000      107        0        0        0       13        4        0    21.443       96     40.2    8.624   -9.900     2.40    0.000    0.000       27        8     2042  Maize_short_Chisinau_7May_Optimum_26_MPI.PRM
  Tot(63)        7        5     2043    153.6    471.3   1040.1   441.00      0.0    150.2      3.4     11.3      0.0    103.6       59    248.2    248.0       91     0.000     0.000     0.000     0.000      107        0        0        0       24        1        7    18.916       88     39.9    7.548   -9.900     2.15    0.000    0.000       27        8     2043  Maize_short_Chisinau_7May_Optimum_26_MPI.PRM
  Tot(64)        7        5     2044    281.3    444.8   1086.4   442.00      0.0    269.1     12.2      0.9      0.0     99.2       49    236.0    236.3      100     0.000     0.000     0.000     0.000      107        0        0        0       18        3        0    20.631       97     40.2    8.290   -9.900     2.47    0.000    0.000       27        8     2044  Maize_short_Chisinau_7May_Optimum_26_MPI.PRM
  Tot(65)        7        5     2045    334.5    403.3   1024.1   442.00      0.0    304.6     29.9     40.1      0.0    103.0       71    247.1    247.3      100     0.000     0.000     0.000     0.000      107        0        0        0       23        2        0    21.243       97     40.1    8.510   -9.900     2.43    0.000    0.000       27        8     2045  Maize_short_Chisinau_7May_Optimum_26_MPI.PRM
  Tot(66)        7        5     2046    130.4    445.7   1080.9   442.00      0.0    130.0      0.4      2.8      0.0     80.8       45    241.7    239.4       92     0.000     0.000     0.000     0.000      107        0        0        0       16        9        5    19.730       86     40.3    7.958   -9.900     2.47    0.000    0.000       27        8     2046  Maize_short_Chisinau_7May_Optimum_26_MPI.PRM
  Tot(67)        7        5     2047    329.5    432.7   1071.9   442.00      0.0    293.2     36.3     15.7      0.0     90.8       54    256.8    255.9      100     0.000     0.000     0.000     0.000      107        0        0        0       19        1        0    21.100       97     40.0    8.445   -9.900     2.43    0.000    0.000       27        8     2047  Maize_short_Chisinau_7May_Optimum_26_MPI.PRM
  Tot(68)        7        5     2048    302.7    446.7   1131.9   442.00      0.0    267.8     34.9     34.4      0.0    110.9       58    249.2    250.1      100     0.000     0.000     0.000     0.000      107        0        0        0       13        3        0    21.357       97     40.2    8.577   -9.900     2.38    0.000    0.000       27        8     2048  Maize_short_Chisinau_7May_Optimum_26_MPI.PRM
  Tot(69)        7        5     2049    142.7    548.5   1166.4   443.00      0.0    137.4      5.3     10.4      0.0     94.7       43    253.8    256.2       83     0.000     0.000     0.000     0.000      107        0        0        0       12        7       15    16.761       75     39.5    6.626   -9.900     1.90    0.000    0.000       27        8     2049  Maize_short_Chisinau_7May_Optimum_26_MPI.PRM
  Tot(70)        7        5     2050    299.5    462.8   1101.6   443.00      0.0    276.0     23.5     27.9      0.0     91.2       47    265.6    263.9      100     0.000     0.000     0.000     0.000      107        0        0        0       15        2        0    21.413       97     40.0    8.569   -9.900     2.40    0.000    0.000       27        8     2050  Maize_short_Chisinau_7May_Optimum_26_MPI.PRM
  Tot(71)        7        5     2051    181.8    475.4   1074.7   443.00      0.0    177.8      4.0      8.6      0.0    100.0       58    274.3    275.2       94     0.000     0.000     0.000     0.000      107        0        0        0       17        3        5    20.482       91     40.1    8.212   -9.900     2.19    0.000    0.000       27        8     2051  Maize_short_Chisinau_7May_Optimum_26_MPI.PRM
  Tot(72)        7        5     2052    218.4    479.5   1143.9   443.00      0.0    208.8      9.6      0.0      0.0     94.4       41    240.8    240.7       96     0.000     0.000     0.000     0.000      107        0        0        0       13       10        2    20.108       89     40.5    8.135   -9.900     2.43    0.000    0.000       27        8     2052  Maize_short_Chisinau_7May_Optimum_26_MPI.PRM
  Tot(73)        7        5     2053    169.8    451.4   1073.6   443.00      0.0    167.2      2.6     14.6      0.0     98.9       61    261.2    260.7       94     0.000     0.000     0.000     0.000      107        0        0        0       19        4        5    19.807       90     40.1    7.943   -9.900     2.21    0.000    0.000       27        8     2053  Maize_short_Chisinau_7May_Optimum_26_MPI.PRM
  Tot(74)        7        5     2054    210.0    490.2   1069.1   443.00      0.0    191.5     18.5      8.0      0.0     94.9       49    280.7    280.0       98     0.000     0.000     0.000     0.000      107        0        0        0       18        5        1    20.917       94     40.2    8.402   -9.900     2.24    0.000    0.000       27        8     2054  Maize_short_Chisinau_7May_Optimum_26_MPI.PRM
  Tot(75)        7        5     2055    179.3    514.9   1184.3   443.00      0.0    178.4      0.9      3.9      0.0    116.2       57    270.9    272.3       88     0.000     0.000     0.000     0.000      107        0        0        0       15        6       10    18.707       82     40.1    7.499   -9.900     1.94    0.000    0.000       27        8     2055  Maize_short_Chisinau_7May_Optimum_26_MPI.PRM
  Tot(76)        7        5     2056    137.4    505.1   1146.0   442.00      0.0    136.2      1.2      1.9      0.0    124.0       62    228.7    229.3       82     0.000     0.000     0.000     0.000      107        0        0        0       14        8       16    16.149       70     39.8    6.422   -9.900     1.82    0.000    0.000       27        8     2056  Maize_short_Chisinau_7May_Optimum_26_MPI.PRM
  Tot(77)        7        5     2057    135.8    497.5   1127.3   442.00      0.0    132.6      3.2      9.1      0.0     94.5       46    244.9    243.8       87     0.000     0.000     0.000     0.000      107        0        0        0       16        5        8    18.775       85     40.1    7.523   -9.900     2.22    0.000    0.000       27        8     2057  Maize_short_Chisinau_7May_Optimum_26_MPI.PRM
  Tot(78)        7        5     2058    143.1    595.0   1281.9   442.00      0.0    138.6      4.5      0.0      0.0     97.1       29    231.4    232.3       84     0.000     0.000     0.000     0.000      107        0        0        0       10       30       11    14.808       64     40.6    6.008   -9.900     1.83    0.000    0.000       27        8     2058  Maize_short_Chisinau_7May_Optimum_26_MPI.PRM
  Tot(79)        7        5     2059    251.6    494.4   1157.9   442.00      0.0    186.1     65.5      0.0      0.0     75.8       34    236.1    234.5       87     0.000     0.000     0.000     0.000      107        0        0        0       16       10        8    17.633       79     40.1    7.068   -9.900     2.27    0.000    0.000       27        8     2059  Maize_short_Chisinau_7May_Optimum_26_MPI.PRM
  Tot(80)        7        5     2060    137.6    484.4   1114.6   442.00      0.0    130.9      6.7     15.6      0.0    106.3       60    225.2    226.9       79     0.000     0.000     0.000     0.000      107        0        0        0       20        4       14    16.556       73     39.4    6.524   -9.900     1.97    0.000    0.000       27        8     2060  Maize_short_Chisinau_7May_Optimum_26_MPI.PRM
  Tot(81)        7        5     2061    133.4    530.5   1207.5   441.00      0.0    130.6      2.8      0.0      0.0     74.3       31    267.3    266.4       90     0.000     0.000     0.000     0.000      107        0        0        0       12       19        7    19.069       81     40.8    7.779   -9.900     2.28    0.000    0.000       27        8     2061  Maize_short_Chisinau_7May_Optimum_26_MPI.PRM
  Tot(82)        7        5     2062    201.3    393.7    910.7   441.00      0.0    192.6      8.7     18.7      0.0     90.1       62    221.0    220.8      100     0.000     0.000     0.000     0.000      107        0        0        0       26        1        0    19.745       97     40.0    7.903   -9.900     2.54    0.000    0.000       27        8     2062  Maize_short_Chisinau_7May_Optimum_26_MPI.PRM
  Tot(83)        7        5     2063    213.0    527.4   1184.5   441.00      0.0    190.2     22.8      7.9      0.0    106.8       48    249.1    247.8       83     0.000     0.000     0.000     0.000      107        0        0        0       14       17       11    16.456       71     40.5    6.665   -9.900     1.87    0.000    0.000       27        8     2063  Maize_short_Chisinau_7May_Optimum_26_MPI.PRM
  Tot(84)        7        5     2064    126.3    509.8   1134.1   440.00      0.0    125.9      0.4      0.0      0.0     94.8       43    234.3    236.8       84     0.000     0.000     0.000     0.000      107        0        0        0       18       12       11    16.853       73     40.2    6.783   -9.900     2.06    0.000    0.000       27        8     2064  Maize_short_Chisinau_7May_Optimum_26_MPI.PRM
  Tot(85)        7        5     2065    181.9    417.4   1032.4   440.00      0.0    175.8      6.1      0.0      0.0     82.1       43    217.6    215.8      100     0.000     0.000     0.000     0.000      107        0        0        0       21        3        0    20.215       96     40.1    8.097   -9.900     2.70    0.000    0.000       27        8     2065  Maize_short_Chisinau_7May_Optimum_26_MPI.PRM
  Tot(86)        7        5     2066    205.9    448.5   1021.6   440.00      0.0    204.1      1.8      4.6      0.0     99.5       57    263.6    264.9      100     0.000     0.000     0.000     0.000      107        0        0        0       18        4        0    21.438       97     40.2    8.620   -9.900     2.37    0.000    0.000       27        8     2066  Maize_short_Chisinau_7May_Optimum_26_MPI.PRM
  Tot(87)        7        5     2067    290.5    392.0    860.8   439.00      0.0    271.4     19.1     17.3      0.0     88.6       52    194.6    193.3      100     0.000     0.000     0.000     0.000      107        0        0        0       30        0        0    18.976       97     40.0    7.591   -9.900     2.68    0.000    0.000       27        8     2067  Maize_short_Chisinau_7May_Optimum_26_MPI.PRM
  Tot(88)        7        5     2068    286.7    434.1   1030.3   439.00      0.0    240.1     46.6     14.5      0.0    109.9       72    264.4    266.5      100     0.000     0.000     0.000     0.000      107        0        0        0       22        1        0    20.174       97     40.1    8.091   -9.900     2.16    0.000    0.000       27        8     2068  Maize_short_Chisinau_7May_Optimum_26_MPI.PRM
  Tot(89)        7        5     2069    292.2    476.1   1196.9   438.00      0.0    285.8      6.4      6.5      0.0    123.4       61    273.8    271.2      100     0.000     0.000     0.000     0.000      107        0        0        0       11        3        0    21.825       97     40.1    8.749   -9.900     2.20    0.000    0.000       27        8     2069  Maize_short_Chisinau_7May_Optimum_26_MPI.PRM
  Tot(90)        7        5     2070    179.5    515.3   1209.7   437.00      0.0    177.8      1.7      0.0      0.0    102.2       45    254.5    255.9       88     0.000     0.000     0.000     0.000      107        0        0        0       11       23        6    17.886       78     40.8    7.301   -9.900     2.05    0.000    0.000       27        8     2070  Maize_short_Chisinau_7May_Optimum_26_MPI.PRM
  Tot(91)        7        5     2071    165.5    525.9   1220.7   437.00      0.0    165.4      0.1      0.0      0.0     98.5       43    275.1    275.0       91     0.000     0.000     0.000     0.000      107        0        0        0        9        4        6    19.784       86     39.9    7.899   -9.900     2.11    0.000    0.000       27        8     2071  Maize_short_Chisinau_7May_Optimum_26_MPI.PRM
  Tot(92)        7        5     2072    201.5    542.7   1264.3   436.00      0.0    188.3     13.2     13.3      0.0    126.9       62    264.5    263.6       81     0.000     0.000     0.000     0.000      107        0        0        0        9        3       14    17.709       75     39.2    6.943   -9.900     1.77    0.000    0.000       27        8     2072  Maize_short_Chisinau_7May_Optimum_26_MPI.PRM
  Tot(93)        7        5     2073    113.4    559.2   1221.1   436.00      0.0    112.7      0.7      0.0      0.0     90.8       40    246.3    248.2       76     0.000     0.000     0.000     0.000      107        0        0        0       14        7       17    16.400       69     39.3    6.445   -9.900     1.91    0.000    0.000       27        8     2073  Maize_short_Chisinau_7May_Optimum_26_MPI.PRM
  Tot(94)        7        5     2074    170.1    526.6   1221.4   435.00      0.0    165.4      4.7      0.0      0.0     94.5       38    245.2    244.9       87     0.000     0.000     0.000     0.000      107        0        0        0       12       21        7    17.330       76     40.6    7.037   -9.900     2.07    0.000    0.000       27        8     2074  Maize_short_Chisinau_7May_Optimum_26_MPI.PRM
  Tot(95)        7        5     2075    317.8    469.5   1108.3   435.00      0.0    282.9     34.9      4.7      0.0    112.2       61    276.9    275.1      100     0.000     0.000     0.000     0.000      107        0        0        0       18        3        0    21.078       97     40.0    8.432   -9.900     2.17    0.000    0.000       27        8     2075  Maize_short_Chisinau_7May_Optimum_26_MPI.PRM
  Tot(96)        7        5     2076    160.8    539.4   1261.4   434.00      0.0    158.9      1.9      6.0      0.0    112.3       44    236.5    237.6       82     0.000     0.000     0.000     0.000      107        0        0        0        9       22       10    16.329       70     40.3    6.583   -9.900     1.89    0.000    0.000       27        8     2076  Maize_short_Chisinau_7May_Optimum_26_MPI.PRM
  Tot(97)        7        5     2077    126.3    575.8   1228.3   433.00      0.0    126.0      0.3      0.0      0.0     89.1       33    247.7    247.9       82     0.000     0.000     0.000     0.000      107        0        0        0       12       11       12    16.203       70     39.7    6.437   -9.900     1.91    0.000    0.000       27        8     2077  Maize_short_Chisinau_7May_Optimum_26_MPI.PRM
  Tot(98)        7        5     2078    206.3    465.1   1124.1   433.00      0.0    202.4      3.9      4.4      0.0     66.8       34    263.7    261.6      100     0.000     0.000     0.000     0.000      107        0        0        0       14        4        0    21.005       96     40.2    8.435   -9.900     2.55    0.000    0.000       27        8     2078  Maize_short_Chisinau_7May_Optimum_26_MPI.PRM
  Tot(99)        7        5     2079    218.5    429.4   1012.3   432.00      0.0    202.6     15.9     23.8      0.0    101.9       58    234.3    234.8      100     0.000     0.000     0.000     0.000      107        0        0        0       19        1        0    20.157       97     40.0    8.063   -9.900     2.40    0.000    0.000       27        8     2079  Maize_short_Chisinau_7May_Optimum_26_MPI.PRM
 Tot(100)        7        5     2080    226.5    475.8   1072.6   432.00      0.0    208.4     18.1     46.6      0.0    108.3       63    264.5    265.8       91     0.000     0.000     0.000     0.000      107        0        0        0       22        2        5    19.766       90     40.0    7.901   -9.900     2.12    0.000    0.000       27        8     2080  Maize_short_Chisinau_7May_Optimum_26_MPI.PRM
 Tot(101)        7        5     2081    228.2    474.1   1157.0   431.00      0.0    215.6     12.6     19.9      0.0    113.0       67    281.2    281.9       94     0.000     0.000     0.000     0.000      107        0        0        0       15        1        4    20.234       92     39.9    8.081   -9.900     2.05    0.000    0.000       27        8     2081  Maize_short_Chisinau_7May_Optimum_26_MPI.PRM
 Tot(102)        7        5     2082    121.2    512.9   1150.0   431.00      0.0    119.4      1.8      5.9      0.0    110.4       52    219.7    219.2       78     0.000     0.000     0.000     0.000      107        0        0        0       15        7       15    15.472       69     39.3    6.080   -9.900     1.84    0.000    0.000       27        8     2082  Maize_short_Chisinau_7May_Optimum_26_MPI.PRM
 Tot(103)        7        5     2083    189.5    508.8   1110.5   430.00      0.0    172.6     16.9     20.9      0.0     87.7       47    279.8    279.6       89     0.000     0.000     0.000     0.000      107        0        0        0       15        4        8    19.375       85     39.9    7.723   -9.900     2.10    0.000    0.000       27        8     2083  Maize_short_Chisinau_7May_Optimum_26_MPI.PRM
 Tot(104)        7        5     2084    264.8    451.6   1079.4   429.00      0.0    250.1     14.7     20.0      0.0    103.5       56    265.9    264.2      100     0.000     0.000     0.000     0.000      107        0        0        0       19        1        0    21.229       97     40.0    8.494   -9.900     2.30    0.000    0.000       27        8     2084  Maize_short_Chisinau_7May_Optimum_26_MPI.PRM
 Tot(105)        7        5     2085    162.9    485.6   1100.1   429.00      0.0    159.6      3.3      7.0      0.0     70.5       32    260.6    261.1       99     0.000     0.000     0.000     0.000      107        0        0        0       14        8        0    20.331       93     40.1    8.159   -9.900     2.46    0.000    0.000       27        8     2085  Maize_short_Chisinau_7May_Optimum_26_MPI.PRM
 Tot(106)        7        5     2086    170.0    471.7   1158.0   428.00      0.0    167.5      2.5      3.1      0.0    105.1       61    267.6    269.2       91     0.000     0.000     0.000     0.000      107        0        0        0       15        0        6    20.173       89     39.8    8.035   -9.900     2.16    0.000    0.000       27        8     2086  Maize_short_Chisinau_7May_Optimum_26_MPI.PRM
 Tot(107)        7        5     2087    185.1    508.3   1204.6   428.00      0.0    182.5      2.6      1.5      0.0    128.1       56    260.1    259.5       92     0.000     0.000     0.000     0.000      107        0        0        0       11        8        6    19.812       88     40.2    7.974   -9.900     2.05    0.000    0.000       27        8     2087  Maize_short_Chisinau_7May_Optimum_26_MPI.PRM
 Tot(108)        7        5     2088    150.6    545.5   1269.9   427.00      0.0    143.7      6.9      3.2      0.0    101.0       43    261.4    262.0       84     0.000     0.000     0.000     0.000      107        0        0        0       10        7       11    18.277       79     39.6    7.234   -9.900     2.00    0.000    0.000       27        8     2088  Maize_short_Chisinau_7May_Optimum_26_MPI.PRM
 Tot(109)        7        5     2089    248.9    449.2   1037.8   427.00      0.0    237.5     11.4     12.9      0.0     97.8       53    251.7    250.8      100     0.000     0.000     0.000     0.000      107        0        0        0       21        1        0    20.105       97     40.0    8.046   -9.900     2.30    0.000    0.000       27        8     2089  Maize_short_Chisinau_7May_Optimum_26_MPI.PRM
 Tot(110)        7        5     2090    214.6    475.5   1070.5   426.00      0.0    211.5      3.1      7.8      0.0     77.6       39    267.1    266.7      100     0.000     0.000     0.000     0.000      107        0        0        0       17        3        0    20.574       96     40.1    8.250   -9.900     2.39    0.000    0.000       27        8     2090  Maize_short_Chisinau_7May_Optimum_26_MPI.PRM
 Tot(111)        7        5     2091    205.4    535.9   1237.0   425.00      0.0    197.5      7.9     17.1      0.0    106.8       49    289.6    290.5       90     0.000     0.000     0.000     0.000      107        0        0        0       10        3        7    20.072       87     40.0    8.020   -9.900     2.02    0.000    0.000       27        8     2091  Maize_short_Chisinau_7May_Optimum_26_MPI.PRM
 Tot(112)        7        5     2092    218.8    434.2   1033.9   425.00      0.0    215.2      3.6      3.9      0.0    125.2       74    251.7    250.4       98     0.000     0.000     0.000     0.000      107        0        0        0       21        3        1    20.483       95     40.2    8.236   -9.900     2.19    0.000    0.000       27        8     2092  Maize_short_Chisinau_7May_Optimum_26_MPI.PRM
 Tot(113)        7        5     2093    168.6    447.4   1037.9   424.00      0.0    168.4      0.2      0.0      0.0     96.4       59    268.1    268.8       98     0.000     0.000     0.000     0.000      107        0        0        0       19        4        2    21.003       94     40.2    8.434   -9.900     2.31    0.000    0.000       27        8     2093  Maize_short_Chisinau_7May_Optimum_26_MPI.PRM
 Tot(114)        7        5     2094    122.6    616.8   1308.7   424.00      0.0    120.6      2.0      0.0      0.0     74.3       27    263.3    263.3       78     0.000     0.000     0.000     0.000      107        0        0        0        8        8       14    16.186       69     39.2    6.338   -9.900     1.88    0.000    0.000       27        8     2094  Maize_short_Chisinau_7May_Optimum_26_MPI.PRM
 Tot(115)        7        5     2095    154.9    535.8   1186.6   423.00      0.0    154.1      0.8      2.9      0.0    106.9       46    246.0    247.7       82     0.000     0.000     0.000     0.000      107        0        0        0       17       19       14    15.841       71     40.3    6.383   -9.900     1.81    0.000    0.000       27        8     2095  Maize_short_Chisinau_7May_Optimum_26_MPI.PRM
 Tot(116)        7        5     2096    122.7    578.8   1288.0   423.00      0.0    122.4      0.3      0.0      0.0    102.0       38    223.1    223.1       76     0.000     0.000     0.000     0.000      107        0        0        0       12       14       19    14.303       60     39.4    5.640   -9.900     1.73    0.000    0.000       27        8     2096  Maize_short_Chisinau_7May_Optimum_26_MPI.PRM
 Tot(117)        7        5     2097    204.3    456.5   1099.5   422.00      0.0    201.0      3.3      7.5      0.0    115.6       67    271.7    269.6       98     0.000     0.000     0.000     0.000      107        0        0        0       19        1        2    21.111       95     40.0    8.448   -9.900     2.18    0.000    0.000       27        8     2097  Maize_short_Chisinau_7May_Optimum_26_MPI.PRM
 Tot(118)        7        5     2098    273.6    454.1   1105.0   422.00      0.0    262.2     11.4     19.7      0.0    114.4       64    270.6    271.2      100     0.000     0.000     0.000     0.000      107        0        0        0       17        2        0    21.072       97     40.1    8.459   -9.900     2.20    0.000    0.000       27        8     2098  Maize_short_Chisinau_7May_Optimum_26_MPI.PRM
 Tot(119)        7        5     2099    231.7    426.1    992.8   421.00      0.0    222.4      9.3     14.7      0.0     87.2       47    219.6    218.3      100     0.000     0.000     0.000     0.000      107        0        0        0       21        1        0    18.854       97     40.0    7.542   -9.900     2.46    0.000    0.000       27        8     2099  Maize_short_Chisinau_7May_Optimum_26_MPI.PRM
