AquaCrop 7.0 (August 2022) - Output created on (date) : 23-11-2022   at (time) : 12:58:50

    RunNr     Day1   Month1    Year1     Rain      ETo       GD     CO2      Irri   Infilt   Runoff    Drain   Upflow        E     E/Ex       Tr      TrW   Tr/Trx    SaltIn   SaltOut    SaltUp  SaltProf     Cycle   SaltStr  FertStr  WeedStr  TempStr   ExpStr   StoStr  BioMass  Brelative   HI    Y(dry)  Y(fresh)    WPet      Bin     Bout     DayN   MonthN    YearN
                                           mm       mm  degC.day    ppm        mm       mm       mm       mm       mm       mm        %       mm       mm        %    ton/ha    ton/ha    ton/ha    ton/ha      days       %        %        %        %        %        %    ton/ha        %       %    ton/ha   ton/ha    kg/m3   ton/ha   ton/ha
   Tot(1)       22        5     1981    131.8    514.9   1295.7   340.11      0.0    131.0      0.8      0.0      0.0    103.1       43    242.3    241.5       87     0.000     0.000     0.000     0.000      107        0        0        0        8        8       10    16.780       78     40.1    6.732   -9.900     1.95    0.000    0.000       11        9     1981  Maize_short_Cahul_22May_Optimum_26_MOHC.PRM
   Tot(2)       22        5     1982    240.1    482.2   1316.7   341.22      0.0    239.1      1.0      0.0      0.0    135.6       61    275.4    273.7      100     0.000     0.000     0.000     0.000      107        0        0        0        5        3        0    21.610       96     40.1    8.659   -9.900     2.11    0.000    0.000       11        9     1982  Maize_short_Cahul_22May_Optimum_26_MOHC.PRM
   Tot(3)       22        5     1983    279.5    484.1   1295.1   342.84      0.0    252.0     27.5     32.8      0.0    123.2       58    279.7    279.7      100     0.000     0.000     0.000     0.000      107        0        0        0        7        5        0    20.958       95     40.2    8.422   -9.900     2.09    0.000    0.000       11        9     1983  Maize_short_Cahul_22May_Optimum_26_MOHC.PRM
   Tot(4)       22        5     1984    165.7    468.8   1167.8   344.40      0.0    165.3      0.4      0.0      0.0    136.8       66    242.9    244.6       92     0.000     0.000     0.000     0.000      107        0        0        0       11        5        7    18.697       87     40.1    7.492   -9.900     1.97    0.000    0.000       11        9     1984  Maize_short_Cahul_22May_Optimum_26_MOHC.PRM
   Tot(5)       22        5     1985    327.9    481.2   1222.6   345.87      0.0    296.5     31.4     47.4      0.0    134.3       67    278.4    277.7       98     0.000     0.000     0.000     0.000      107        0        0        0       12        3        1    20.283       95     40.1    8.143   -9.900     1.97    0.000    0.000       11        9     1985  Maize_short_Cahul_22May_Optimum_26_MOHC.PRM
   Tot(6)       22        5     1986    159.8    540.0   1341.9   347.19      0.0    158.4      1.4      1.2      0.0    122.8       49    246.5    247.1       84     0.000     0.000     0.000     0.000      107        0        0        0        6       11       12    16.625       75     40.0    6.653   -9.900     1.80    0.000    0.000       11        9     1986  Maize_short_Cahul_22May_Optimum_26_MOHC.PRM
   Tot(7)       22        5     1987    237.0    495.2   1234.6   348.98      0.0    226.5     10.5      5.8      0.0    111.8       54    293.7    292.6      100     0.000     0.000     0.000     0.000      107        0        0        0       10        4        0    20.802       96     40.2    8.362   -9.900     2.06    0.000    0.000       11        9     1987  Maize_short_Cahul_22May_Optimum_26_MOHC.PRM
   Tot(8)       22        5     1988    215.6    496.5   1322.9   351.45      0.0    198.9     16.7     20.3      0.0    136.2       59    210.5    212.3       80     0.000     0.000     0.000     0.000      107        0        0        0        8       15       16    13.431       61     40.0    5.376   -9.900     1.55    0.000    0.000       11        9     1988  Maize_short_Cahul_22May_Optimum_26_MOHC.PRM
   Tot(9)       22        5     1989    278.3    464.8   1227.8   352.89      0.0    269.4      8.9      0.8      0.0    130.8       68    277.9    276.5       98     0.000     0.000     0.000     0.000      107        0        0        0       11        5        1    20.634       94     40.1    8.276   -9.900     2.02    0.000    0.000       11        9     1989  Maize_short_Cahul_22May_Optimum_26_MOHC.PRM
  Tot(10)       22        5     1990    134.6    519.4   1222.9   354.16      0.0    133.4      1.2      4.2      0.0    134.3       52    210.8    212.4       82     0.000     0.000     0.000     0.000      105        0        0        0       11       20       18    13.755       62     40.0    5.508   -9.900     1.60    0.000    0.000       11        9     1990  Maize_short_Cahul_22May_Optimum_26_MOHC.PRM
  Tot(11)       22        5     1991    339.7    442.2   1261.6   355.48      0.0    294.4     45.3     75.9      0.0    115.8       67    276.1    274.2      100     0.000     0.000     0.000     0.000      107        0        0        0       10        2        0    21.539       97     40.1    8.636   -9.900     2.20    0.000    0.000       11        9     1991  Maize_short_Cahul_22May_Optimum_26_MOHC.PRM
  Tot(12)       22        5     1992    172.1    523.4   1310.7   356.27      0.0    171.3      0.8      0.0      0.0    144.3       66    238.3    239.0       79     0.000     0.000     0.000     0.000      107        0        0        0        8       14       15    15.310       68     39.8    6.099   -9.900     1.59    0.000    0.000       11        9     1992  Maize_short_Cahul_22May_Optimum_26_MOHC.PRM
  Tot(13)       22        5     1993    184.6    515.2   1213.1   356.95      0.0    177.7      6.9     14.6      0.0    114.5       50    251.4    250.8       90     0.000     0.000     0.000     0.000      107        0        0        0       12        7        7    17.190       83     40.1    6.897   -9.900     1.88    0.000    0.000       11        9     1993  Maize_short_Cahul_22May_Optimum_26_MOHC.PRM
  Tot(14)       22        5     1994    229.2    520.8   1387.8   358.63      0.0    210.6     18.6     40.3      0.0    104.3       44    270.1    270.5       90     0.000     0.000     0.000     0.000      107        0        0        0        7        9        8    18.841       81     40.2    7.580   -9.900     2.02    0.000    0.000       11        9     1994  Maize_short_Cahul_22May_Optimum_26_MOHC.PRM
  Tot(15)       22        5     1995    194.2    524.5   1401.1   360.62      0.0    189.8      4.4      0.3      0.0    116.9       46    243.9    243.6       88     0.000     0.000     0.000     0.000      107        0        0        0        3       13        9    16.803       74     40.3    6.767   -9.900     1.88    0.000    0.000       11        9     1995  Maize_short_Cahul_22May_Optimum_26_MOHC.PRM
  Tot(16)       22        5     1996    152.9    537.6   1282.2   362.37      0.0    143.3      9.6      0.4      0.0     97.4       31    204.1    205.2       87     0.000     0.000     0.000     0.000      107        0        0        0        9       27        7    14.129       65     40.7    5.751   -9.900     1.91    0.000    0.000       11        9     1996  Maize_short_Cahul_22May_Optimum_26_MOHC.PRM
  Tot(17)       22        5     1997    432.8    444.0   1221.9   363.47      0.0    383.5     49.3     17.3      0.0    148.6       78    259.9    259.2      100     0.000     0.000     0.000     0.000      107        0        0        0       10        1        0    21.660       97     40.0    8.668   -9.900     2.12    0.000    0.000       11        9     1997  Maize_short_Cahul_22May_Optimum_26_MOHC.PRM
  Tot(18)       22        5     1998    180.5    509.6   1309.0   366.50      0.0    177.7      2.8      0.0      0.0    130.0       58    239.8    239.7       85     0.000     0.000     0.000     0.000      107        0        0        0        8        8       11    15.759       73     40.0    6.303   -9.900     1.70    0.000    0.000       11        9     1998  Maize_short_Cahul_22May_Optimum_26_MOHC.PRM
  Tot(19)       22        5     1999    308.1    540.3   1455.6   368.14      0.0    295.8     12.3     14.0      0.0    143.6       56    302.8    301.2       99     0.000     0.000     0.000     0.000      107        0        0        0        3       11        1    21.267       92     40.6    8.645   -9.900     1.94    0.000    0.000       11        9     1999  Maize_short_Cahul_22May_Optimum_26_MOHC.PRM
  Tot(20)       22        5     2000    130.9    589.8   1344.8   369.41      0.0    120.7     10.2      0.0      0.0     97.4       28    199.7    202.3       79     0.000     0.000     0.000     0.000      107        0        0        0        7       21       16    12.156       54     40.0    4.866   -9.900     1.64    0.000    0.000       11        9     2000  Maize_short_Cahul_22May_Optimum_26_MOHC.PRM
  Tot(21)       22        5     2001    279.5    543.9   1369.9   371.07      0.0    230.6     48.9     24.2      0.0    149.2       55    207.6    207.9       77     0.000     0.000     0.000     0.000       99        0        0        0        6       18       20    12.713       55     35.9    4.565   -9.900     1.32    0.000    0.000       11        9     2001  Maize_short_Cahul_22May_Optimum_26_MOHC.PRM
  Tot(22)       22        5     2002    292.1    558.8   1450.8   373.16      0.0    255.3     36.8      0.0      0.0    114.8       41    303.8    301.7      100     0.000     0.000     0.000     0.000      107        0        0        0        4       15        0    20.987       88     40.0    8.396   -9.900     2.01    0.000    0.000       11        9     2002  Maize_short_Cahul_22May_Optimum_26_MOHC.PRM
  Tot(23)       22        5     2003    116.6    575.5   1394.8   375.80      0.0    116.5      0.1      0.0      0.0    105.7       34    221.9    223.7       82     0.000     0.000     0.000     0.000      107        0        0        0        6       17       16    14.768       65     39.7    5.864   -9.900     1.79    0.000    0.000       11        9     2003  Maize_short_Cahul_22May_Optimum_26_MOHC.PRM
  Tot(24)       22        5     2004    264.5    517.1   1270.8   377.49      0.0    258.7      5.8      1.7      0.0    127.4       55    294.4    294.3      100     0.000     0.000     0.000     0.000      107        0        0        0        9        6        0    21.236       95     40.2    8.535   -9.900     2.02    0.000    0.000       11        9     2004  Maize_short_Cahul_22May_Optimum_26_MOHC.PRM
  Tot(25)       22        5     2005    340.5    530.1   1378.5   379.80      0.0    324.9     15.6      7.2      0.0    155.4       67    317.3    314.7      100     0.000     0.000     0.000     0.000      107        0        0        0        5        2        0    22.748       97     40.0    9.107   -9.900     1.93    0.000    0.000       11        9     2005  Maize_short_Cahul_22May_Optimum_26_MOHC.PRM
  Tot(26)       22        5     2006    165.3    572.9   1356.3   381.90      0.0    162.9      2.4      0.0      0.0    124.3       41    230.5    232.4       82     0.000     0.000     0.000     0.000      107        0        0        0        7       27       12    14.781       64     40.6    6.000   -9.900     1.69    0.000    0.000       11        9     2006  Maize_short_Cahul_22May_Optimum_26_MOHC.PRM
  Tot(27)       22        5     2007    154.6    656.0   1505.6   383.77      0.0    153.3      1.3      0.0      0.0    127.0       32    225.1    224.7       80     0.000     0.000     0.000     0.000      107        0        0        0        3       31       12    12.953       56     40.5    5.250   -9.900     1.49    0.000    0.000       11        9     2007  Maize_short_Cahul_22May_Optimum_26_MOHC.PRM
  Tot(28)       22        5     2008    135.9    609.6   1430.9   385.59      0.0    135.2      0.7      0.6      0.0    124.8       39    228.9    230.0       78     0.000     0.000     0.000     0.000      107        0        0        0        3       20       19    13.684       58     39.6    5.425   -9.900     1.53    0.000    0.000       11        9     2008  Maize_short_Cahul_22May_Optimum_26_MOHC.PRM
  Tot(29)       22        5     2009    193.1    608.5   1428.8   387.37      0.0    186.0      7.1      0.0      0.0    132.2       42    241.1    240.7       81     0.000     0.000     0.000     0.000      107        0        0        0        4       18       16    14.136       60     40.1    5.670   -9.900     1.52    0.000    0.000       11        9     2009  Maize_short_Cahul_22May_Optimum_26_MOHC.PRM
  Tot(30)       22        5     2010    262.4    544.9   1456.8   389.85      0.0    244.4     18.0     23.9      0.0    128.7       53    284.3    283.2       90     0.000     0.000     0.000     0.000      107        0        0        0        5        4        7    19.216       83     39.8    7.647   -9.900     1.85    0.000    0.000       11        9     2010  Maize_short_Cahul_22May_Optimum_26_MOHC.PRM
  Tot(31)       22        5     2011    160.8    575.7   1434.7   391.63      0.0    157.7      3.1      5.8      0.0    126.0       47    245.7    247.2       78     0.000     0.000     0.000     0.000      107        0        0        0        3       14       18    15.775       67     39.7    6.267   -9.900     1.69    0.000    0.000       11        9     2011  Maize_short_Cahul_22May_Optimum_26_MOHC.PRM
  Tot(32)       22        5     2012    196.3    639.5   1494.0   393.82      0.0    189.7      6.6      8.8      0.0    148.0       47    246.7    246.5       76     0.000     0.000     0.000     0.000      107        0        0        0        3       24       19    13.737       58     40.2    5.516   -9.900     1.40    0.000    0.000       11        9     2012  Maize_short_Cahul_22May_Optimum_26_MOHC.PRM
  Tot(33)       22        5     2013    252.7    563.0   1428.9   396.48      0.0    239.0     13.7     14.7      0.0    144.5       57    275.7    274.9       86     0.000     0.000     0.000     0.000      107        0        0        0        3        8       10    18.220       77     40.0    7.293   -9.900     1.74    0.000    0.000       11        9     2013  Maize_short_Cahul_22May_Optimum_26_MOHC.PRM
  Tot(34)       22        5     2014    196.3    573.6   1463.6   398.55      0.0    193.6      2.7      4.1      0.0    147.2       60    268.2    269.0       80     0.000     0.000     0.000     0.000      107        0        0        0        3       10       16    17.068       71     39.6    6.758   -9.900     1.63    0.000    0.000       11        9     2014  Maize_short_Cahul_22May_Optimum_26_MOHC.PRM
  Tot(35)       22        5     2015    138.9    636.7   1471.6   401.00      0.0    136.7      2.2      0.0      0.0    116.3       36    235.7    235.8       74     0.000     0.000     0.000     0.000      107        0        0        0        4       20       19    13.876       58     40.0    5.544   -9.900     1.57    0.000    0.000       11        9     2015  Maize_short_Cahul_22May_Optimum_26_MOHC.PRM
  Tot(36)       22        5     2016    164.9    587.5   1485.2   403.00      0.0    161.0      3.9      8.4      0.0    156.7       54    214.7    215.0       73     0.000     0.000     0.000     0.000      107        0        0        0        3       24       23    12.842       53     39.8    5.114   -9.900     1.38    0.000    0.000       11        9     2016  Maize_short_Cahul_22May_Optimum_26_MOHC.PRM
  Tot(37)       22        5     2017    244.3    575.3   1442.4   405.00      0.0    217.3     27.0      1.4      0.0    121.3       49    311.8    310.9       91     0.000     0.000     0.000     0.000      107        0        0        0        3        6        9    19.916       84     39.9    7.949   -9.900     1.84    0.000    0.000       11        9     2017  Maize_short_Cahul_22May_Optimum_26_MOHC.PRM
  Tot(38)       22        5     2018    162.1    570.8   1538.6   408.00      0.0    157.2      4.9      0.0      0.0     92.0       33    276.7    277.1       87     0.000     0.000     0.000     0.000      107        0        0        0        2        8       10    19.108       79     39.6    7.576   -9.900     2.05    0.000    0.000       11        9     2018  Maize_short_Cahul_22May_Optimum_26_MOHC.PRM
  Tot(39)       22        5     2019    162.8    617.9   1528.8   410.00      0.0    161.5      1.3      0.0      0.0    164.0       51    219.7    220.3       76     0.000     0.000     0.000     0.000      105        0        0        0        1       20       21    13.827       57     39.4    5.447   -9.900     1.42    0.000    0.000       11        9     2019  Maize_short_Cahul_22May_Optimum_26_MOHC.PRM
  Tot(40)       22        5     2020     84.1    636.6   1508.7   412.00      0.0     84.1      0.0      0.0      0.0    103.4       26    161.2    161.2       73     0.000     0.000     0.000     0.000       86        0        0        0        8       33       20     8.154       34     22.9    1.866   -9.900     0.77    0.000    0.000       11        9     2020  Maize_short_Cahul_22May_Optimum_26_MOHC.PRM
  Tot(41)       22        5     2021     43.0    648.1   1531.6   414.00      0.0     43.0      0.0      0.0      0.0     79.8       19    160.6    160.6       75     0.000     0.000     0.000     0.000       88        0        0        0        2       34       19     8.439       35     25.0    2.112   -9.900     0.91    0.000    0.000       11        9     2021  Maize_short_Cahul_22May_Optimum_26_MOHC.PRM
  Tot(42)       22        5     2022     55.6    669.7   1609.6   417.00      0.0     55.6      0.0      0.0      0.0     86.1       21    177.5    177.5       73     0.000     0.000     0.000     0.000       91        0        0        0        3       31       20     9.646       39     27.9    2.687   -9.900     1.03    0.000    0.000       11        9     2022  Maize_short_Cahul_22May_Optimum_26_MOHC.PRM
  Tot(43)       22        5     2023     65.4    694.2   1610.4   419.00      0.0     65.4      0.0      0.0      0.0     92.6       19    158.9    158.9       74     0.000     0.000     0.000     0.000       88        0        0        0        1       35       19     7.917       33     24.9    1.973   -9.900     0.83    0.000    0.000       11        9     2023  Maize_short_Cahul_22May_Optimum_26_MOHC.PRM
  Tot(44)       22        5     2024    220.2    630.7   1591.3   421.00      0.0    198.9     21.3     18.3      0.0    131.4       42    228.4    228.4       75     0.000     0.000     0.000     0.000       99        0        0        0        2       14       20    13.438       55     35.3    4.743   -9.900     1.34    0.000    0.000       11        9     2024  Maize_short_Cahul_22May_Optimum_26_MOHC.PRM
  Tot(45)       22        5     2025     87.4    635.7   1478.6   423.00      0.0     85.3      2.1      0.0      0.0     92.6       21    159.3    159.0       77     0.000     0.000     0.000     0.000      107        0        0        0        6       37       13     8.115       35     33.6    2.726   -9.900     1.08    0.000    0.000       11        9     2025  Maize_short_Cahul_22May_Optimum_26_MOHC.PRM
  Tot(46)       22        5     2026     79.4    718.7   1642.3   424.00      0.0     77.0      2.4      8.2      0.0    102.4       22    168.5    168.7       72     0.000     0.000     0.000     0.000       87        0        0        0        1       33       20     8.543       35     23.8    2.030   -9.900     0.76    0.000    0.000       11        9     2026  Maize_short_Cahul_22May_Optimum_26_MOHC.PRM
  Tot(47)       22        5     2027     74.1    695.9   1614.5   426.00      0.0     73.9      0.2      0.0      0.0    104.7       24    167.5    167.5       71     0.000     0.000     0.000     0.000       85        0        0        0        2       32       21     8.079       33     21.8    1.758   -9.900     0.65    0.000    0.000       11        9     2027  Maize_short_Cahul_22May_Optimum_26_MOHC.PRM
  Tot(48)       22        5     2028    150.6    675.8   1579.2   428.00      0.0    141.8      8.8      0.0      0.0    129.3       28    154.1    154.1       75     0.000     0.000     0.000     0.000       86        0        0        0        3       37       19     6.984       29     22.1    1.541   -9.900     0.62    0.000    0.000       11        9     2028  Maize_short_Cahul_22May_Optimum_26_MOHC.PRM
  Tot(49)       22        5     2029    118.8    635.4   1569.5   429.00      0.0    108.2     10.6     19.6      0.0    112.7       33    184.8    184.8       71     0.000     0.000     0.000     0.000       90        0        0        0        2       25       21    10.329       42     26.6    2.745   -9.900     0.93    0.000    0.000       11        9     2029  Maize_short_Cahul_22May_Optimum_26_MOHC.PRM
  Tot(50)       22        5     2030    129.3    742.3   1718.2   431.00      0.0    114.3     15.0     12.4      0.0    116.6       27    189.6    189.6       69     0.000     0.000     0.000     0.000       86        0        0        0        0       28       22     8.811       36     22.4    1.976   -9.900     0.66    0.000    0.000       11        9     2030  Maize_short_Cahul_22May_Optimum_26_MOHC.PRM
  Tot(51)       22        5     2031     91.9    638.8   1569.2   432.00      0.0     86.4      5.5      6.9      0.0    108.2       30    180.5    180.5       73     0.000     0.000     0.000     0.000       91        0        0        0        3       26       21    10.261       42     27.7    2.841   -9.900     1.01    0.000    0.000       11        9     2031  Maize_short_Cahul_22May_Optimum_26_MOHC.PRM
  Tot(52)       22        5     2032     33.3    755.0   1729.3   433.00      0.0     33.3      0.0      0.0      0.0     72.1       13    148.2    148.2       76     0.000     0.000     0.000     0.000       88        0        0        0        0       39       18     6.734       27     25.2    1.694   -9.900     0.82    0.000    0.000       11        9     2032  Maize_short_Cahul_22May_Optimum_26_MOHC.PRM
  Tot(53)       22        5     2033    103.9    704.0   1653.4   435.00      0.0    103.0      0.9      3.3      0.0    125.8       29    175.8    175.8       71     0.000     0.000     0.000     0.000       86        0        0        0        2       30       22     8.552       35     22.6    1.935   -9.900     0.66    0.000    0.000       11        9     2033  Maize_short_Cahul_22May_Optimum_26_MOHC.PRM
  Tot(54)       22        5     2034    105.7    624.0   1543.7   436.00      0.0    105.2      0.5      0.6      0.0    102.3       30    193.0    193.0       75     0.000     0.000     0.000     0.000       94        0        0        0        3       23       20    11.261       46     30.9    3.480   -9.900     1.22    0.000    0.000       11        9     2034  Maize_short_Cahul_22May_Optimum_26_MOHC.PRM
  Tot(55)       22        5     2035     70.2    661.6   1598.9   437.00      0.0     69.7      0.5      0.0      0.0     96.6       24    178.3    178.3       74     0.000     0.000     0.000     0.000       89        0        0        0        1       30       20     9.443       38     25.8    2.438   -9.900     0.91    0.000    0.000       11        9     2035  Maize_short_Cahul_22May_Optimum_26_MOHC.PRM
  Tot(56)       22        5     2036     90.4    667.0   1552.8   438.00      0.0     90.3      0.1      0.0      0.0    112.4       28    173.7    173.7       72     0.000     0.000     0.000     0.000       88        0        0        0        2       31       21     8.802       37     24.8    2.179   -9.900     0.80    0.000    0.000       11        9     2036  Maize_short_Cahul_22May_Optimum_26_MOHC.PRM
  Tot(57)       22        5     2037     53.0    678.7   1604.5   438.00      0.0     52.5      0.5      0.5      0.0     84.6       20    163.3    163.3       72     0.000     0.000     0.000     0.000       85        0        0        0        2       34       20     8.037       33     21.8    1.756   -9.900     0.71    0.000    0.000       11        9     2037  Maize_short_Cahul_22May_Optimum_26_MOHC.PRM
  Tot(58)       22        5     2038    107.5    589.6   1475.2   439.00      0.0    104.7      2.8      0.5      0.0    122.8       41    191.0    191.0       73     0.000     0.000     0.000     0.000       93        0        0        0        3       21       21    11.456       47     29.6    3.390   -9.900     1.11    0.000    0.000       11        9     2038  Maize_short_Cahul_22May_Optimum_26_MOHC.PRM
  Tot(59)       22        5     2039     31.3    711.2   1632.4   440.00      0.0     31.3      0.0      0.0      0.0     70.3       14    154.3    154.3       74     0.000     0.000     0.000     0.000       85        0        0        0        1       36       19     7.400       30     22.0    1.626   -9.900     0.75    0.000    0.000       11        9     2039  Maize_short_Cahul_22May_Optimum_26_MOHC.PRM
  Tot(60)       22        5     2040     61.4    684.7   1560.2   440.00      0.0     61.1      0.3      0.0      0.0     80.1       18    187.2    187.0       73     0.000     0.000     0.000     0.000      107        0        0        0        2       32       22    10.027       41     39.9    4.004   -9.900     1.50    0.000    0.000       11        9     2040  Maize_short_Cahul_22May_Optimum_26_MOHC.PRM
  Tot(61)       22        5     2041     75.0    704.4   1604.0   441.00      0.0     74.6      0.4      0.0      0.0    103.4       24    171.1    171.4       72     0.000     0.000     0.000     0.000       86        0        0        0        4       32       21     8.589       35     22.8    1.956   -9.900     0.72    0.000    0.000       11        9     2041  Maize_short_Cahul_22May_Optimum_26_MOHC.PRM
  Tot(62)       22        5     2042     68.6    605.5   1502.1   441.00      0.0     68.6      0.0      0.0      0.0     93.8       27    185.7    185.7       76     0.000     0.000     0.000     0.000       95        0        0        0        5       27       19    10.969       44     31.9    3.496   -9.900     1.27    0.000    0.000       11        9     2042  Maize_short_Cahul_22May_Optimum_26_MOHC.PRM
  Tot(63)       22        5     2043     48.8    697.3   1630.2   441.00      0.0     48.8      0.0      0.0      0.0     85.1       19    160.2    160.2       72     0.000     0.000     0.000     0.000       85        0        0        0        1       34       20     7.950       32     21.8    1.734   -9.900     0.72    0.000    0.000       11        9     2043  Maize_short_Cahul_22May_Optimum_26_MOHC.PRM
  Tot(64)       22        5     2044    161.9    601.4   1527.9   442.00      0.0    161.8      0.1      0.0      0.0    147.2       46    204.7    204.7       76     0.000     0.000     0.000     0.000       95        0        0        0        1       21       20    12.250       51     31.9    3.904   -9.900     1.12    0.000    0.000       11        9     2044  Maize_short_Cahul_22May_Optimum_26_MOHC.PRM
  Tot(65)       22        5     2045    149.8    659.3   1529.6   442.00      0.0    125.8     24.0     34.2      0.0    121.6       31    169.4    169.4       70     0.000     0.000     0.000     0.000       87        0        0        0        1       31       21     8.868       36     23.7    2.099   -9.900     0.73    0.000    0.000       11        9     2045  Maize_short_Cahul_22May_Optimum_26_MOHC.PRM
  Tot(66)       22        5     2046     41.4    787.5   1806.5   442.00      0.0     41.2      0.2      0.0      0.0     78.3       13    151.4    151.4       76     0.000     0.000     0.000     0.000       85        0        0        0        0       39       18     6.736       27     14.0    0.942   -9.900     0.43    0.000    0.000       11        9     2046  Maize_short_Cahul_22May_Optimum_26_MOHC.PRM
  Tot(67)       22        5     2047     53.9    652.7   1660.5   442.00      0.0     51.2      2.7     10.5      0.0     76.8       19    164.7    164.7       72     0.000     0.000     0.000     0.000       88        0        0        0        1       31       20     8.877       36     24.8    2.205   -9.900     0.92    0.000    0.000       11        9     2047  Maize_short_Cahul_22May_Optimum_26_MOHC.PRM
  Tot(68)       22        5     2048    254.2    609.1   1493.5   442.00      0.0    169.5     84.7     48.8      0.0    109.3       36    229.7    229.7       78     0.000     0.000     0.000     0.000      101        0        0        0        4       18       20    13.339       55     37.6    5.011   -9.900     1.49    0.000    0.000       11        9     2048  Maize_short_Cahul_22May_Optimum_26_MOHC.PRM
  Tot(69)       22        5     2049     65.9    642.2   1604.2   443.00      0.0     65.9      0.0      0.0      0.0    101.0       25    166.6    166.6       76     0.000     0.000     0.000     0.000       91        0        0        0        3       32       19     9.250       38     28.1    2.601   -9.900     0.98    0.000    0.000       11        9     2049  Maize_short_Cahul_22May_Optimum_26_MOHC.PRM
  Tot(70)       22        5     2050     70.4    668.5   1627.1   443.00      0.0     69.8      0.6      0.0      0.0     94.7       21    160.0    160.0       74     0.000     0.000     0.000     0.000       89        0        0        0        2       35       19     8.127       33     26.1    2.118   -9.900     0.90    0.000    0.000       11        9     2050  Maize_short_Cahul_22May_Optimum_26_MOHC.PRM
  Tot(71)       22        5     2051     66.9    689.5   1628.8   443.00      0.0     66.7      0.2      0.0      0.0     95.1       23    175.0    175.0       73     0.000     0.000     0.000     0.000       87        0        0        0        3       30       20     9.035       37     24.2    2.187   -9.900     0.83    0.000    0.000       11        9     2051  Maize_short_Cahul_22May_Optimum_26_MOHC.PRM
  Tot(72)       22        5     2052     92.8    648.4   1633.6   443.00      0.0     92.8      0.0      0.0      0.0     99.0       27    206.2    206.2       76     0.000     0.000     0.000     0.000       94        0        0        0        0       24       20    11.141       45     30.8    3.427   -9.900     1.15    0.000    0.000       11        9     2052  Maize_short_Cahul_22May_Optimum_26_MOHC.PRM
  Tot(73)       22        5     2053     82.2    682.1   1658.6   443.00      0.0     82.1      0.1      0.0      0.0    112.1       26    171.7    171.7       74     0.000     0.000     0.000     0.000       88        0        0        0        0       32       20     8.790       36     24.9    2.186   -9.900     0.79    0.000    0.000       11        9     2053  Maize_short_Cahul_22May_Optimum_26_MOHC.PRM
  Tot(74)       22        5     2054    213.4    641.1   1564.3   443.00      0.0    198.8     14.6     14.9      0.0    149.0       43    216.4    216.4       77     0.000     0.000     0.000     0.000       95        0        0        0        1       22       20    11.855       48     31.7    3.759   -9.900     1.08    0.000    0.000       11        9     2054  Maize_short_Cahul_22May_Optimum_26_MOHC.PRM
  Tot(75)       22        5     2055    129.6    682.4   1621.1   443.00      0.0    118.8     10.8     24.8      0.0    104.5       22    161.8    161.8       79     0.000     0.000     0.000     0.000       90        0        0        0        1       38       18     8.032       33     27.3    2.190   -9.900     0.92    0.000    0.000       11        9     2055  Maize_short_Cahul_22May_Optimum_26_MOHC.PRM
  Tot(76)       22        5     2056     98.1    700.6   1639.5   442.00      0.0     96.4      1.7      1.1      0.0    120.7       28    181.1    181.1       72     0.000     0.000     0.000     0.000       88        0        0        0        1       30       21     9.221       38     24.6    2.268   -9.900     0.77    0.000    0.000       11        9     2056  Maize_short_Cahul_22May_Optimum_26_MOHC.PRM
  Tot(77)       22        5     2057    117.6    665.0   1652.0   442.00      0.0    116.2      1.4      0.0      0.0    124.1       35    205.2    205.2       73     0.000     0.000     0.000     0.000       92        0        0        0        1       20       21    11.272       46     28.5    3.215   -9.900     0.99    0.000    0.000       11        9     2057  Maize_short_Cahul_22May_Optimum_26_MOHC.PRM
  Tot(78)       22        5     2058     57.4    676.6   1629.3   442.00      0.0     56.5      0.9      0.0      0.0     83.5       19    177.0    177.0       77     0.000     0.000     0.000     0.000       91        0        0        0        1       32       19     9.552       39     28.0    2.674   -9.900     1.05    0.000    0.000       11        9     2058  Maize_short_Cahul_22May_Optimum_26_MOHC.PRM
  Tot(79)       22        5     2059     60.4    674.3   1600.9   442.00      0.0     60.3      0.1      0.0      0.0     82.1       20    189.7    189.7       74     0.000     0.000     0.000     0.000       94        0        0        0        5       28       20    10.231       41     30.7    3.136   -9.900     1.16    0.000    0.000       11        9     2059  Maize_short_Cahul_22May_Optimum_26_MOHC.PRM
  Tot(80)       22        5     2060     62.6    629.5   1554.2   442.00      0.0     61.8      0.8      1.6      0.0     86.3       24    174.7    174.7       73     0.000     0.000     0.000     0.000       90        0        0        0        2       28       20     9.899       40     26.8    2.649   -9.900     1.04    0.000    0.000       11        9     2060  Maize_short_Cahul_22May_Optimum_26_MOHC.PRM
  Tot(81)       22        5     2061     47.2    660.1   1642.0   441.00      0.0     47.2      0.0      0.0      0.0     84.0       20    158.3    158.3       74     0.000     0.000     0.000     0.000       86        0        0        0        2       34       19     8.060       33     23.0    1.852   -9.900     0.79    0.000    0.000       11        9     2061  Maize_short_Cahul_22May_Optimum_26_MOHC.PRM
  Tot(82)       22        5     2062     68.2    679.2   1607.2   441.00      0.0     68.2      0.0      0.0      0.0     96.8       21    173.7    173.7       79     0.000     0.000     0.000     0.000       96        0        0        0        3       36       17     9.353       38     33.3    3.118   -9.900     1.17    0.000    0.000       11        9     2062  Maize_short_Cahul_22May_Optimum_26_MOHC.PRM
  Tot(83)       22        5     2063    138.4    644.2   1597.8   441.00      0.0    128.3     10.1     18.3      0.0    128.6       33    167.4    167.4       72     0.000     0.000     0.000     0.000       86        0        0        0        2       31       21     8.699       35     22.8    1.980   -9.900     0.73    0.000    0.000       11        9     2063  Maize_short_Cahul_22May_Optimum_26_MOHC.PRM
  Tot(84)       22        5     2064     89.3    668.3   1610.8   440.00      0.0     83.0      6.3     12.2      0.0     98.4       24    167.5    167.5       73     0.000     0.000     0.000     0.000       86        0        0        0        0       32       20     8.700       35     23.2    2.021   -9.900     0.80    0.000    0.000       11        9     2064  Maize_short_Cahul_22May_Optimum_26_MOHC.PRM
  Tot(85)       22        5     2065     54.6    742.6   1666.6   440.00      0.0     54.4      0.2      0.0      0.0     94.5       16    146.0    146.0       79     0.000     0.000     0.000     0.000       90        0        0        0        0       42       17     6.410       26     26.3    1.687   -9.900     0.72    0.000    0.000       11        9     2065  Maize_short_Cahul_22May_Optimum_26_MOHC.PRM
  Tot(86)       22        5     2066    254.7    601.0   1491.5   440.00      0.0    182.4     72.3      0.0      0.0    127.4       36    194.7    194.1       77     0.000     0.000     0.000     0.000      107        0        0        0        4       31       13    11.337       48     40.4    4.578   -9.900     1.42    0.000    0.000       11        9     2066  Maize_short_Cahul_22May_Optimum_26_MOHC.PRM
  Tot(87)       22        5     2067     74.6    671.2   1586.4   439.00      0.0     73.8      0.8      0.0      0.0     70.0       17    219.1    219.3       78     0.000     0.000     0.000     0.000      107        0        0        0        1       35       17    12.045       49     40.2    4.841   -9.900     1.67    0.000    0.000       11        9     2067  Maize_short_Cahul_22May_Optimum_26_MOHC.PRM
  Tot(88)       22        5     2068    243.5    550.6   1414.9   439.00      0.0    224.2     19.3     31.9      0.0    143.1       58    249.8    249.2       83     0.000     0.000     0.000     0.000      107        0        0        0        5       15       12    16.450       68     40.4    6.645   -9.900     1.69    0.000    0.000       11        9     2068  Maize_short_Cahul_22May_Optimum_26_MOHC.PRM
  Tot(89)       22        5     2069     86.2    607.8   1561.3   438.00      0.0     85.2      1.0      0.0      0.0    103.6       31    194.0    194.9       76     0.000     0.000     0.000     0.000       93        0        0        0        2       24       20    11.384       46     30.1    3.422   -9.900     1.19    0.000    0.000       11        9     2069  Maize_short_Cahul_22May_Optimum_26_MOHC.PRM
  Tot(90)       22        5     2070     20.3    628.3   1536.8   437.00      0.0     20.3      0.0      0.0      0.0     55.2       14    162.8    162.8       74     0.000     0.000     0.000     0.000       89        0        0        0        3       33       19     8.609       35     25.0    2.152   -9.900     0.99    0.000    0.000       11        9     2070  Maize_short_Cahul_22May_Optimum_26_MOHC.PRM
  Tot(91)       22        5     2071    238.3    579.7   1485.2   437.00      0.0    211.5     26.8     12.2      0.0    135.4       48    239.2    237.9       82     0.000     0.000     0.000     0.000      107        0        0        0        4       23       11    15.434       64     40.5    6.246   -9.900     1.67    0.000    0.000       11        9     2071  Maize_short_Cahul_22May_Optimum_26_MOHC.PRM
  Tot(92)       22        5     2072     52.6    614.4   1522.4   436.00      0.0     52.6      0.0      0.0      0.0     79.8       22    180.6    182.0       78     0.000     0.000     0.000     0.000       93        0        0        0        2       31       18    10.588       43     30.4    3.215   -9.900     1.24    0.000    0.000       11        9     2072  Maize_short_Cahul_22May_Optimum_26_MOHC.PRM
  Tot(93)       22        5     2073     37.8    699.7   1652.5   436.00      0.0     37.0      0.8      1.4      0.0     74.5       14    155.0    155.0       80     0.000     0.000     0.000     0.000       90        0        0        0        0       39       17     7.556       31     27.3    2.061   -9.900     0.90    0.000    0.000       11        9     2073  Maize_short_Cahul_22May_Optimum_26_MOHC.PRM
  Tot(94)       22        5     2074     92.3    630.8   1497.4   435.00      0.0     92.2      0.1      0.0      0.0    113.0       31    188.5    188.5       75     0.000     0.000     0.000     0.000       92        0        0        0        3       26       20    10.472       43     28.9    3.025   -9.900     1.01    0.000    0.000       11        9     2074  Maize_short_Cahul_22May_Optimum_26_MOHC.PRM
  Tot(95)       22        5     2075     86.4    588.1   1472.8   435.00      0.0     85.9      0.5      1.7      0.0    109.4       35    178.6    178.6       72     0.000     0.000     0.000     0.000       91        0        0        0        3       24       20    10.419       43     27.7    2.890   -9.900     1.02    0.000    0.000       11        9     2075  Maize_short_Cahul_22May_Optimum_26_MOHC.PRM
  Tot(96)       22        5     2076     66.8    724.0   1697.0   434.00      0.0     65.2      1.6      0.9      0.0     95.3       20    164.1    164.1       71     0.000     0.000     0.000     0.000       84        0        0        0        1       34       21     7.709       31     13.6    1.049   -9.900     0.41    0.000    0.000       11        9     2076  Maize_short_Cahul_22May_Optimum_26_MOHC.PRM
  Tot(97)       22        5     2077     65.3    704.9   1560.7   433.00      0.0     65.2      0.1      0.0      0.0     99.5       21    158.3    158.3       75     0.000     0.000     0.000     0.000       85        0        0        0        2       36       20     7.531       31     21.0    1.580   -9.900     0.62    0.000    0.000       11        9     2077  Maize_short_Cahul_22May_Optimum_26_MOHC.PRM
  Tot(98)       22        5     2078    128.5    636.6   1628.7   433.00      0.0    128.0      0.5      0.0      0.0    145.6       41    195.9    195.9       75     0.000     0.000     0.000     0.000       93        0        0        0        1       24       20    11.333       46     30.0    3.396   -9.900     1.01    0.000    0.000       11        9     2078  Maize_short_Cahul_22May_Optimum_26_MOHC.PRM
  Tot(99)       22        5     2079    115.5    637.0   1561.8   432.00      0.0    113.2      2.3      0.0      0.0    126.4       34    178.6    178.5       72     0.000     0.000     0.000     0.000      107        0        0        0        4       28       20     9.524       39     40.0    3.810   -9.900     1.25    0.000    0.000       11        9     2079  Maize_short_Cahul_22May_Optimum_26_MOHC.PRM
 Tot(100)       22        5     2080     87.1    671.1   1595.2   432.00      0.0     86.1      1.0      0.0      0.0     94.4       23    170.7    170.7       71     0.000     0.000     0.000     0.000       86        0        0        0        1       31       21     8.671       36     23.2    2.007   -9.900     0.78    0.000    0.000       11        9     2080  Maize_short_Cahul_22May_Optimum_26_MOHC.PRM
 Tot(101)       22        5     2081     86.4    709.9   1723.9   431.00      0.0     85.6      0.8      0.0      0.0    117.8       24    158.4    158.4       74     0.000     0.000     0.000     0.000       89        0        0        0        0       36       19     7.588       31     21.1    1.600   -9.900     0.58    0.000    0.000       11        9     2081  Maize_short_Cahul_22May_Optimum_26_MOHC.PRM
 Tot(102)       22        5     2082     30.6    739.0   1683.8   431.00      0.0     30.6      0.0      0.0      0.0     71.2       13    150.6    150.6       76     0.000     0.000     0.000     0.000       86        0        0        0        0       38       18     6.980       28     23.1    1.611   -9.900     0.73    0.000    0.000       11        9     2082  Maize_short_Cahul_22May_Optimum_26_MOHC.PRM
 Tot(103)       22        5     2083    112.9    675.6   1612.3   430.00      0.0    112.3      0.6      0.0      0.0    128.6       28    160.5    160.4       76     0.000     0.000     0.000     0.000      107        0        0        0        2       37       15     7.647       31     32.3    2.473   -9.900     0.86    0.000    0.000       11        9     2083  Maize_short_Cahul_22May_Optimum_26_MOHC.PRM
 Tot(104)       22        5     2084    100.7    681.2   1637.9   429.00      0.0    100.6      0.1      0.0      0.0    119.1       31    185.5    185.6       70     0.000     0.000     0.000     0.000       87        0        0        0        2       28       22     9.143       37     23.4    2.143   -9.900     0.72    0.000    0.000       11        9     2084  Maize_short_Cahul_22May_Optimum_26_MOHC.PRM
 Tot(105)       22        5     2085     68.0    607.4   1564.6   429.00      0.0     67.8      0.2      0.2      0.0     96.7       26    169.4    169.4       75     0.000     0.000     0.000     0.000       90        0        0        0        2       31       19     9.441       38     27.0    2.549   -9.900     1.01    0.000    0.000       11        9     2085  Maize_short_Cahul_22May_Optimum_26_MOHC.PRM
 Tot(106)       22        5     2086    138.5    602.0   1488.7   428.00      0.0    118.5     20.0     29.8      0.0    112.4       34    179.8    179.8       73     0.000     0.000     0.000     0.000       89        0        0        0        3       27       21     9.900       41     25.8    2.551   -9.900     0.88    0.000    0.000       11        9     2086  Maize_short_Cahul_22May_Optimum_26_MOHC.PRM
 Tot(107)       22        5     2087    101.2    706.2   1703.5   428.00      0.0    101.0      0.2      0.0      0.0    119.3       23    157.4    157.4       78     0.000     0.000     0.000     0.000      107        0        0        0        0       38       16     7.489       30     26.3    1.971   -9.900     0.71    0.000    0.000       11        9     2087  Maize_short_Cahul_22May_Optimum_26_MOHC.PRM
 Tot(108)       22        5     2088     96.7    610.3   1504.3   427.00      0.0     89.5      7.2     12.1      0.0     95.7       26    166.6    166.6       73     0.000     0.000     0.000     0.000       88        0        0        0        3       31       20     8.871       37     24.9    2.207   -9.900     0.91    0.000    0.000       11        9     2088  Maize_short_Cahul_22May_Optimum_26_MOHC.PRM
 Tot(109)       22        5     2089    140.6    611.1   1618.2   427.00      0.0    139.7      0.9      0.0      0.0    134.5       41    220.9    220.8       77     0.000     0.000     0.000     0.000      107        0        0        0        1       24       20    13.313       55     40.1    5.338   -9.900     1.50    0.000    0.000       11        9     2089  Maize_short_Cahul_22May_Optimum_26_MOHC.PRM
 Tot(110)       22        5     2090     53.2    685.1   1657.5   426.00      0.0     53.2      0.0      0.0      0.0     86.9       19    167.8    167.9       76     0.000     0.000     0.000     0.000       89        0        0        0        1       34       19     8.834       36     26.4    2.332   -9.900     0.92    0.000    0.000       11        9     2090  Maize_short_Cahul_22May_Optimum_26_MOHC.PRM
 Tot(111)       22        5     2091    118.5    612.6   1544.5   425.00      0.0    117.8      0.7      0.0      0.0    107.2       33    226.4    226.0       77     0.000     0.000     0.000     0.000      107        0        0        0        3       24       18    13.935       58     39.8    5.548   -9.900     1.66    0.000    0.000       11        9     2091  Maize_short_Cahul_22May_Optimum_26_MOHC.PRM
 Tot(112)       22        5     2092     80.7    602.8   1552.1   425.00      0.0     80.7      0.0      0.0      0.0     94.8       31    205.9    206.4       74     0.000     0.000     0.000     0.000       97        0        0        0        3       18       21    12.310       50     33.3    4.096   -9.900     1.37    0.000    0.000       11        9     2092  Maize_short_Cahul_22May_Optimum_26_MOHC.PRM
 Tot(113)       22        5     2093     67.0    651.8   1592.6   424.00      0.0     66.7      0.3      0.0      0.0     95.2       24    174.9    174.9       73     0.000     0.000     0.000     0.000       88        0        0        0        1       30       21     9.021       37     24.7    2.232   -9.900     0.84    0.000    0.000       11        9     2093  Maize_short_Cahul_22May_Optimum_26_MOHC.PRM
 Tot(114)       22        5     2094    191.5    591.9   1518.2   424.00      0.0    138.6     52.9      0.0      0.0     97.8       27    170.6    170.6       77     0.000     0.000     0.000     0.000       91        0        0        0        2       31       19     9.839       41     28.4    2.793   -9.900     1.11    0.000    0.000       11        9     2094  Maize_short_Cahul_22May_Optimum_26_MOHC.PRM
 Tot(115)       22        5     2095    217.9    608.5   1499.4   423.00      0.0    190.0     27.9      0.0      0.0    117.4       40    212.7    212.7       74     0.000     0.000     0.000     0.000       93        0        0        0        4       19       21    11.465       48     29.5    3.387   -9.900     1.03    0.000    0.000       11        9     2095  Maize_short_Cahul_22May_Optimum_26_MOHC.PRM
 Tot(116)       22        5     2096     73.4    722.0   1719.8   423.00      0.0     73.4      0.0      0.0      0.0    106.8       20    159.6    159.6       78     0.000     0.000     0.000     0.000       93        0        0        0        0       37       17     7.921       32     30.3    2.397   -9.900     0.95    0.000    0.000       11        9     2096  Maize_short_Cahul_22May_Optimum_26_MOHC.PRM
 Tot(117)       22        5     2097     58.6    631.9   1597.8   422.00      0.0     56.2      2.4      5.6      0.0     81.7       23    174.4    174.4       70     0.000     0.000     0.000     0.000       89        0        0        0        4       28       21     9.526       39     25.6    2.441   -9.900     0.96    0.000    0.000       11        9     2097  Maize_short_Cahul_22May_Optimum_26_MOHC.PRM
 Tot(118)       22        5     2098     40.7    635.3   1456.2   422.00      0.0     40.3      0.4      0.0      0.0     54.9       15    202.4    202.4       77     0.000     0.000     0.000     0.000      103        0        0        0        3       31       20    11.527       47     39.6    4.563   -9.900     1.78    0.000    0.000       11        9     2098  Maize_short_Cahul_22May_Optimum_26_MOHC.PRM
 Tot(119)       22        5     2099     27.5    776.8   1698.3   421.00      0.0     27.5      0.0      0.0      0.0     67.9       12    148.0    148.0       75     0.000     0.000     0.000     0.000       85        0        0        0        2       40       18     6.233       25     21.1    1.314   -9.900     0.63    0.000    0.000       11        9     2099  Maize_short_Cahul_22May_Optimum_26_MOHC.PRM
