AquaCrop 7.0 (August 2022) - Output created on (date) : 23-11-2022   at (time) : 13:06:32

    RunNr     Day1   Month1    Year1     Rain      ETo       GD     CO2      Irri   Infilt   Runoff    Drain   Upflow        E     E/Ex       Tr      TrW   Tr/Trx    SaltIn   SaltOut    SaltUp  SaltProf     Cycle   SaltStr  FertStr  WeedStr  TempStr   ExpStr   StoStr  BioMass  Brelative   HI    Y(dry)  Y(fresh)    WPet      Bin     Bout     DayN   MonthN    YearN
                                           mm       mm  degC.day    ppm        mm       mm       mm       mm       mm       mm        %       mm       mm        %    ton/ha    ton/ha    ton/ha    ton/ha      days       %        %        %        %        %        %    ton/ha        %       %    ton/ha   ton/ha    kg/m3   ton/ha   ton/ha
   Tot(1)        6        6     1981    179.0    479.2   1259.0   340.11      0.0    174.7      4.3      0.0      0.0    132.9       57    220.5    219.1       90     0.000     0.000     0.000     0.000      107        0        0        0       13       17        7    16.102       81     40.7    6.560   -9.900     1.86    0.000    0.000       26        9     1981  Maize_short_Cahul_6June_Optimum_26_MPI.PRM
   Tot(2)        6        6     1982    226.5    453.3   1300.2   341.22      0.0    224.6      1.9      0.0      0.0    156.5       76    260.5    260.9       99     0.000     0.000     0.000     0.000      107        0        0        0        6        2        1    21.545       96     40.1    8.646   -9.900     2.07    0.000    0.000       26        9     1982  Maize_short_Cahul_6June_Optimum_26_MPI.PRM
   Tot(3)        6        6     1983    282.8    466.4   1248.7   342.84      0.0    248.9     33.9     46.7      0.0    132.2       64    257.0    257.3       99     0.000     0.000     0.000     0.000      107        0        0        0        9        4        1    20.228       95     40.0    8.092   -9.900     2.08    0.000    0.000       26        9     1983  Maize_short_Cahul_6June_Optimum_26_MPI.PRM
   Tot(4)        6        6     1984    143.5    453.8   1166.3   344.40      0.0    140.3      3.2      4.9      0.0    123.3       58    220.8    220.0       91     0.000     0.000     0.000     0.000      107        0        0        0       11        9        9    17.880       83     40.2    7.193   -9.900     2.09    0.000    0.000       26        9     1984  Maize_short_Cahul_6June_Optimum_26_MPI.PRM
   Tot(5)        6        6     1985    324.4    461.9   1179.1   345.87      0.0    287.6     36.8     49.1      0.0    135.8       70    258.6    259.2       99     0.000     0.000     0.000     0.000      107        0        0        0       16        4        0    19.185       96     40.2    7.717   -9.900     1.96    0.000    0.000       26        9     1985  Maize_short_Cahul_6June_Optimum_26_MPI.PRM
   Tot(6)        6        6     1986    149.3    523.6   1330.5   347.19      0.0    143.2      6.1      7.2      0.0    118.6       48    231.7    232.3       83     0.000     0.000     0.000     0.000      107        0        0        0        8       15       14    15.738       73     40.4    6.352   -9.900     1.81    0.000    0.000       26        9     1986  Maize_short_Cahul_6June_Optimum_26_MPI.PRM
   Tot(7)        6        6     1987    210.0    499.3   1282.2   348.98      0.0    199.7     10.3      5.6      0.0    126.8       54    262.1    260.7       98     0.000     0.000     0.000     0.000      107        0        0        0        9        6        2    19.599       94     40.3    7.891   -9.900     2.03    0.000    0.000       26        9     1987  Maize_short_Cahul_6June_Optimum_26_MPI.PRM
   Tot(8)        6        6     1988    164.3    492.5   1317.1   351.45      0.0    154.4      9.9      0.0      0.0    107.7       41    206.4    207.0       87     0.000     0.000     0.000     0.000      107        0        0        0        9       24        8    14.613       69     40.7    5.955   -9.900     1.90    0.000    0.000       26        9     1988  Maize_short_Cahul_6June_Optimum_26_MPI.PRM
   Tot(9)        6        6     1989    263.2    446.7   1239.6   352.89      0.0    252.6     10.6      6.9      0.0    133.6       65    242.4    241.5      100     0.000     0.000     0.000     0.000      107        0        0        0       11        3        0    19.953       97     40.1    8.005   -9.900     2.13    0.000    0.000       26        9     1989  Maize_short_Cahul_6June_Optimum_26_MPI.PRM
  Tot(10)        6        6     1990    126.8    508.1   1226.1   354.16      0.0    126.2      0.6      0.0      0.0    119.2       45    208.6    210.1       87     0.000     0.000     0.000     0.000      107        0        0        0       13       18       13    14.494       73     40.4    5.863   -9.900     1.79    0.000    0.000       26        9     1990  Maize_short_Cahul_6June_Optimum_26_MPI.PRM
  Tot(11)        6        6     1991    222.0    443.1   1313.0   355.48      0.0    209.4     12.6     21.9      0.0    124.4       61    240.4    239.0      100     0.000     0.000     0.000     0.000      107        0        0        0        8        3        0    20.349       97     40.2    8.172   -9.900     2.24    0.000    0.000       26        9     1991  Maize_short_Cahul_6June_Optimum_26_MPI.PRM
  Tot(12)        6        6     1992    139.3    517.8   1313.1   356.27      0.0    135.9      3.4      6.6      0.0    123.4       48    211.3    213.1       82     0.000     0.000     0.000     0.000      107        0        0        0       10       22       15    13.783       66     40.5    5.588   -9.900     1.67    0.000    0.000       26        9     1992  Maize_short_Cahul_6June_Optimum_26_MPI.PRM
  Tot(13)        6        6     1993    141.0    501.0   1168.2   356.95      0.0    140.8      0.2      0.0      0.0    104.1       42    227.4    226.3       93     0.000     0.000     0.000     0.000      107        0        0        0       16       16        5    16.569       84     40.7    6.735   -9.900     2.03    0.000    0.000       26        9     1993  Maize_short_Cahul_6June_Optimum_26_MPI.PRM
  Tot(14)        6        6     1994    201.5    505.3   1432.3   358.63      0.0    160.3     41.2     32.0      0.0     90.1       36    252.3    252.7       90     0.000     0.000     0.000     0.000      107        0        0        0        3       18        8    18.486       80     40.7    7.518   -9.900     2.20    0.000    0.000       26        9     1994  Maize_short_Cahul_6June_Optimum_26_MPI.PRM
  Tot(15)        6        6     1995    191.4    495.2   1340.3   360.62      0.0    188.1      3.3      0.0      0.0    121.7       48    237.3    237.7       95     0.000     0.000     0.000     0.000      107        0        0        0        9       16        3    18.156       87     40.7    7.387   -9.900     2.06    0.000    0.000       26        9     1995  Maize_short_Cahul_6June_Optimum_26_MPI.PRM
  Tot(16)        6        6     1996    216.5    496.5   1218.6   362.37      0.0    188.4     28.1      0.0      0.0     84.8       28    192.8    192.6       97     0.000     0.000     0.000     0.000      107        0        0        0       17       27        1    14.902       79     40.9    6.096   -9.900     2.20    0.000    0.000       26        9     1996  Maize_short_Cahul_6June_Optimum_26_MPI.PRM
  Tot(17)        6        6     1997    374.7    437.8   1219.0   363.47      0.0    331.6     43.1     21.0      0.0    154.2       73    216.0    216.5      100     0.000     0.000     0.000     0.000      107        0        0        0       13        1        0    19.216       97     40.0    7.687   -9.900     2.08    0.000    0.000       26        9     1997  Maize_short_Cahul_6June_Optimum_26_MPI.PRM
  Tot(18)        6        6     1998    210.6    490.9   1290.8   366.50      0.0    202.8      7.8      2.7      0.0    137.5       57    216.7    215.7       88     0.000     0.000     0.000     0.000      107        0        0        0       11       22        7    15.320       74     40.7    6.242   -9.900     1.76    0.000    0.000       26        9     1998  Maize_short_Cahul_6June_Optimum_26_MPI.PRM
  Tot(19)        6        6     1999    276.9    515.7   1442.8   368.14      0.0    264.5     12.4     18.9      0.0    146.3       54    262.2    260.6      100     0.000     0.000     0.000     0.000      107        0        0        0        5       12        0    20.568       92     40.4    8.314   -9.900     2.04    0.000    0.000       26        9     1999  Maize_short_Cahul_6June_Optimum_26_MPI.PRM
  Tot(20)        6        6     2000    158.9    542.0   1294.7   369.41      0.0    148.1     10.8      0.0      0.0     98.1       31    203.4    206.0       85     0.000     0.000     0.000     0.000      107        0        0        0       12       25        8    13.776       66     40.7    5.610   -9.900     1.86    0.000    0.000       26        9     2000  Maize_short_Cahul_6June_Optimum_26_MPI.PRM
  Tot(21)        6        6     2001    221.7    527.9   1398.2   371.07      0.0    201.1     20.6      0.3      0.0    135.1       46    194.9    195.0       82     0.000     0.000     0.000     0.000      107        0        0        0        6       27       12    12.690       57     40.6    5.151   -9.900     1.56    0.000    0.000       26        9     2001  Maize_short_Cahul_6June_Optimum_26_MPI.PRM
  Tot(22)        6        6     2002    281.0    528.2   1422.2   373.16      0.0    245.2     35.8     12.8      0.0    108.3       38    260.4    259.6      100     0.000     0.000     0.000     0.000      107        0        0        0        6        5        0    20.424       92     40.0    8.170   -9.900     2.22    0.000    0.000       26        9     2002  Maize_short_Cahul_6June_Optimum_26_MPI.PRM
  Tot(23)        6        6     2003    140.3    548.0   1349.4   375.80      0.0    134.9      5.4      0.0      0.0    100.9       34    221.2    221.7       86     0.000     0.000     0.000     0.000      107        0        0        0        9       17       10    15.517       73     40.4    6.273   -9.900     1.95    0.000    0.000       26        9     2003  Maize_short_Cahul_6June_Optimum_26_MPI.PRM
  Tot(24)        6        6     2004    228.7    508.4   1288.8   377.49      0.0    221.5      7.2      3.7      0.0    113.5       45    258.8    258.0      100     0.000     0.000     0.000     0.000      107        0        0        0        9        6        0    20.096       94     40.2    8.071   -9.900     2.17    0.000    0.000       26        9     2004  Maize_short_Cahul_6June_Optimum_26_MPI.PRM
  Tot(25)        6        6     2005    352.7    506.6   1346.7   379.80      0.0    327.3     25.4     34.4      0.0    134.4       59    291.2    289.5      100     0.000     0.000     0.000     0.000      107        0        0        0        5        2        0    21.779       96     40.0    8.720   -9.900     2.05    0.000    0.000       26        9     2005  Maize_short_Cahul_6June_Optimum_26_MPI.PRM
  Tot(26)        6        6     2006    156.6    550.8   1344.7   381.90      0.0    154.3      2.3      0.0      0.0    113.1       36    238.3    239.7       93     0.000     0.000     0.000     0.000      107        0        0        0        6       24        5    16.857       75     40.6    6.849   -9.900     1.95    0.000    0.000       26        9     2006  Maize_short_Cahul_6June_Optimum_26_MPI.PRM
  Tot(27)        6        6     2007    159.1    626.4   1410.5   383.77      0.0    157.4      1.7      0.0      0.0    124.0       31    229.3    229.4       92     0.000     0.000     0.000     0.000      107        0        0        0        8       25        6    14.814       69     40.2    5.960   -9.900     1.69    0.000    0.000       26        9     2007  Maize_short_Cahul_6June_Optimum_26_MPI.PRM
  Tot(28)        6        6     2008    197.7    569.5   1367.7   385.59      0.0    188.2      9.5      0.0      0.0    129.2       43    217.9    218.9       80     0.000     0.000     0.000     0.000      107        0        0        0       12       19       12    13.692       67     40.3    5.520   -9.900     1.59    0.000    0.000       26        9     2008  Maize_short_Cahul_6June_Optimum_26_MPI.PRM
  Tot(29)        6        6     2009    176.3    588.9   1438.2   387.37      0.0    169.3      7.0      0.0      0.0    132.6       41    237.0    236.4       86     0.000     0.000     0.000     0.000      107        0        0        0        4       23       12    15.251       66     40.6    6.188   -9.900     1.67    0.000    0.000       26        9     2009  Maize_short_Cahul_6June_Optimum_26_MPI.PRM
  Tot(30)        6        6     2010    247.1    521.6   1434.9   389.85      0.0    228.6     18.5     34.5      0.0    144.4       58    242.2    241.9       87     0.000     0.000     0.000     0.000      107        0        0        0        7       15        9    17.023       76     40.6    6.909   -9.900     1.79    0.000    0.000       26        9     2010  Maize_short_Cahul_6June_Optimum_26_MPI.PRM
  Tot(31)        6        6     2011    144.1    558.1   1426.3   391.63      0.0    132.7     11.4     12.7      0.0    119.0       40    215.7    216.9       81     0.000     0.000     0.000     0.000      104        0        0        0        3       20       18    13.821       58     40.0    5.525   -9.900     1.65    0.000    0.000       26        9     2011  Maize_short_Cahul_6June_Optimum_26_MPI.PRM
  Tot(32)        6        6     2012    172.7    628.8   1504.7   393.82      0.0    166.6      6.1      6.3      0.0    136.7       36    225.7    224.3       82     0.000     0.000     0.000     0.000      107        0        0        0        3       30       14    13.332       57     40.3    5.372   -9.900     1.48    0.000    0.000       26        9     2012  Maize_short_Cahul_6June_Optimum_26_MPI.PRM
  Tot(33)        6        6     2013    278.4    535.9   1388.7   396.48      0.0    252.5     25.9     25.8      0.0    138.7       51    237.0    237.2       89     0.000     0.000     0.000     0.000      107        0        0        0        8       19        6    16.949       78     40.7    6.904   -9.900     1.84    0.000    0.000       26        9     2013  Maize_short_Cahul_6June_Optimum_26_MPI.PRM
  Tot(34)        6        6     2014    153.0    567.9   1422.4   398.55      0.0    152.8      0.2      0.0      0.0    140.1       49    227.5    228.7       79     0.000     0.000     0.000     0.000      107        0        0        0        6       23       20    14.324       63     39.8    5.704   -9.900     1.55    0.000    0.000       26        9     2014  Maize_short_Cahul_6June_Optimum_26_MPI.PRM
  Tot(35)        6        6     2015    140.8    604.0   1480.5   401.00      0.0    138.4      2.4      0.1      0.0    131.6       39    216.4    216.3       78     0.000     0.000     0.000     0.000      107        0        0        0        3       29       19    13.045       55     40.3    5.259   -9.900     1.51    0.000    0.000       26        9     2015  Maize_short_Cahul_6June_Optimum_26_MPI.PRM
  Tot(36)        6        6     2016    168.2    577.0   1458.2   403.00      0.0    155.6     12.6      0.1      0.0    129.7       38    195.0    195.2       81     0.000     0.000     0.000     0.000      107        0        0        0        7       28       16    11.995       54     40.3    4.834   -9.900     1.49    0.000    0.000       26        9     2016  Maize_short_Cahul_6June_Optimum_26_MPI.PRM
  Tot(37)        6        6     2017    233.5    561.6   1453.7   405.00      0.0    202.3     31.2      8.2      0.0    137.4       53    277.3    276.9       88     0.000     0.000     0.000     0.000      107        0        0        0        4        6       13    18.327       79     39.7    7.273   -9.900     1.75    0.000    0.000       26        9     2017  Maize_short_Cahul_6June_Optimum_26_MPI.PRM
  Tot(38)        6        6     2018    165.7    536.5   1498.9   408.00      0.0    161.3      4.4      0.0      0.0    114.1       46    258.3    258.7       87     0.000     0.000     0.000     0.000      107        0        0        0        4        5       13    17.983       77     39.8    7.154   -9.900     1.92    0.000    0.000       26        9     2018  Maize_short_Cahul_6June_Optimum_26_MPI.PRM
  Tot(39)        6        6     2019    147.0    605.5   1482.4   410.00      0.0    144.2      2.8      0.6      0.0    138.0       39    196.3    196.3       78     0.000     0.000     0.000     0.000       98        0        0        0        1       22       19    12.126       53     34.8    4.223   -9.900     1.28    0.000    0.000       26        9     2019  Maize_short_Cahul_6June_Optimum_26_MPI.PRM
  Tot(40)        6        6     2020    165.9    453.3   1161.6   412.00      0.0    161.4      4.5      1.9      0.0    129.1       60    216.9    216.0       97     0.000     0.000     0.000     0.000      107        0        0        0       16       19        2    17.448       88     40.7    7.095   -9.900     2.05    0.000    0.000       26        9     2020  Maize_short_Cahul_6June_Optimum_26_MPI.PRM
  Tot(41)        6        6     2021    129.1    466.0   1163.6   414.00      0.0    123.8      5.3      0.0      0.0     74.9       34    237.2    237.9       99     0.000     0.000     0.000     0.000      107        0        0        0       14        5        1    19.852       93     40.1    7.956   -9.900     2.55    0.000    0.000       26        9     2021  Maize_short_Cahul_6June_Optimum_26_MPI.PRM
  Tot(42)        6        6     2022    124.7    507.9   1186.2   417.00      0.0    123.0      1.7      6.8      0.0    117.6       47    206.1    205.6       84     0.000     0.000     0.000     0.000      107        0        0        0       14       26       13    14.386       69     40.7    5.854   -9.900     1.81    0.000    0.000       26        9     2022  Maize_short_Cahul_6June_Optimum_26_MPI.PRM
  Tot(43)        6        6     2023    148.6    541.3   1285.4   419.00      0.0    143.7      4.9      0.0      0.0    108.8       34    201.2    200.9       88     0.000     0.000     0.000     0.000      107        0        0        0       11       26        9    14.516       68     40.6    5.896   -9.900     1.90    0.000    0.000       26        9     2023  Maize_short_Cahul_6June_Optimum_26_MPI.PRM
  Tot(44)        6        6     2024    150.5    490.5   1191.2   421.00      0.0    150.2      0.3      0.0      0.0     94.6       41    255.4    255.3       98     0.000     0.000     0.000     0.000      107        0        0        0       11        8        2    20.077       91     40.2    8.075   -9.900     2.31    0.000    0.000       26        9     2024  Maize_short_Cahul_6June_Optimum_26_MPI.PRM
  Tot(45)        6        6     2025    122.1    485.9   1212.6   423.00      0.0    120.5      1.6      0.0      0.0     81.6       29    201.6    202.3       99     0.000     0.000     0.000     0.000      107        0        0        0       15       17        0    17.237       86     40.7    7.007   -9.900     2.47    0.000    0.000       26        9     2025  Maize_short_Cahul_6June_Optimum_26_MPI.PRM
  Tot(46)        6        6     2026    168.5    520.1   1175.8   424.00      0.0    164.6      3.9      2.2      0.0    112.4       45    231.5    231.9       90     0.000     0.000     0.000     0.000      107        0        0        0       15       11        6    16.635       80     40.2    6.693   -9.900     1.95    0.000    0.000       26        9     2026  Maize_short_Cahul_6June_Optimum_26_MPI.PRM
  Tot(47)        6        6     2027    137.9    448.5   1133.6   426.00      0.0    137.6      0.3      0.0      0.0     94.9       45    226.7    225.4       98     0.000     0.000     0.000     0.000      107        0        0        0       16        7        1    19.553       93     40.3    7.877   -9.900     2.45    0.000    0.000       26        9     2027  Maize_short_Cahul_6June_Optimum_26_MPI.PRM
  Tot(48)        6        6     2028    182.4    431.9   1082.2   428.00      0.0    177.8      4.6      8.8      0.0     96.8       49    222.4    221.9      100     0.000     0.000     0.000     0.000      107        0        0        0       16        2        0    20.287       96     40.0    8.118   -9.900     2.54    0.000    0.000       26        9     2028  Maize_short_Cahul_6June_Optimum_26_MPI.PRM
  Tot(49)        6        6     2029    163.8    448.5   1076.9   429.00      0.0    157.5      6.3     11.9      0.0    104.8       52    222.6    223.7       97     0.000     0.000     0.000     0.000      107        0        0        0       19       12        2    17.672       91     40.7    7.188   -9.900     2.20    0.000    0.000       26        9     2029  Maize_short_Cahul_6June_Optimum_26_MPI.PRM
  Tot(50)        6        6     2030    113.8    541.3   1200.8   431.00      0.0    113.2      0.6      0.0      0.0    122.6       40    179.6    180.2       78     0.000     0.000     0.000     0.000      107        0        0        0       15       26       16    11.218       54     40.4    4.530   -9.900     1.50    0.000    0.000       26        9     2030  Maize_short_Cahul_6June_Optimum_26_MPI.PRM
  Tot(51)        6        6     2031    153.7    474.1   1145.9   432.00      0.0    152.3      1.4      0.0      0.0     99.9       40    202.2    202.0      100     0.000     0.000     0.000     0.000      107        0        0        0       18        8        0    17.364       92     40.2    6.978   -9.900     2.31    0.000    0.000       26        9     2031  Maize_short_Cahul_6June_Optimum_26_MPI.PRM
  Tot(52)        6        6     2032    128.2    471.8   1085.4   433.00      0.0    115.5     12.7     12.3      0.0    105.4       48    204.3    204.6       91     0.000     0.000     0.000     0.000      107        0        0        0       20       14       10    15.595       83     40.4    6.294   -9.900     2.03    0.000    0.000       26        9     2032  Maize_short_Cahul_6June_Optimum_26_MPI.PRM
  Tot(53)        6        6     2033    278.3    423.0   1020.0   435.00      0.0    223.3     55.0     45.7      0.0    125.9       69    209.1    209.1      100     0.000     0.000     0.000     0.000      107        0        0        0       21        2        0    18.471       97     40.1    7.398   -9.900     2.21    0.000    0.000       26        9     2033  Maize_short_Cahul_6June_Optimum_26_MPI.PRM
  Tot(54)        6        6     2034    209.7    481.8   1233.0   436.00      0.0    202.1      7.6      0.0      0.0    118.9       48    230.0    228.0       99     0.000     0.000     0.000     0.000      107        0        0        0       13       16        0    18.944       91     40.7    7.714   -9.900     2.21    0.000    0.000       26        9     2034  Maize_short_Cahul_6June_Optimum_26_MPI.PRM
  Tot(55)        6        6     2035    196.4    484.1   1188.9   437.00      0.0    178.9     17.5      2.1      0.0    107.2       45    224.6    225.0       93     0.000     0.000     0.000     0.000      107        0        0        0       13       11        4    18.112       84     40.4    7.321   -9.900     2.21    0.000    0.000       26        9     2035  Maize_short_Cahul_6June_Optimum_26_MPI.PRM
  Tot(56)        6        6     2036    164.7    448.9   1152.5   438.00      0.0    161.7      3.0      3.5      0.0     90.0       42    222.1    223.3      100     0.000     0.000     0.000     0.000      107        0        0        0       16        5        0    19.600       95     40.1    7.865   -9.900     2.52    0.000    0.000       26        9     2036  Maize_short_Cahul_6June_Optimum_26_MPI.PRM
  Tot(57)        6        6     2037    225.6    430.5   1119.1   438.00      0.0    204.5     21.1     23.9      0.0    113.3       55    218.9    218.2      100     0.000     0.000     0.000     0.000      107        0        0        0       16        4        0    20.677       96     40.2    8.303   -9.900     2.50    0.000    0.000       26        9     2037  Maize_short_Cahul_6June_Optimum_26_MPI.PRM
  Tot(58)        6        6     2038    165.6    475.6   1162.2   439.00      0.0    161.3      4.3      0.0      0.0     81.5       34    221.9    222.6      100     0.000     0.000     0.000     0.000      107        0        0        0       17        5        0    18.635       94     40.1    7.476   -9.900     2.46    0.000    0.000       26        9     2038  Maize_short_Cahul_6June_Optimum_26_MPI.PRM
  Tot(59)        6        6     2039    119.8    529.0   1213.6   440.00      0.0    114.6      5.2      0.0      0.0    100.2       33    215.5    215.2       94     0.000     0.000     0.000     0.000      107        0        0        0       12       31        5    15.638       73     40.9    6.394   -9.900     2.03    0.000    0.000       26        9     2039  Maize_short_Cahul_6June_Optimum_26_MPI.PRM
  Tot(60)        6        6     2040     60.1    549.6   1254.6   440.00      0.0     60.0      0.1      0.0      0.0     79.4       24    174.9    175.5       81     0.000     0.000     0.000     0.000      100        0        0        0        5       28       17    11.715       52     37.2    4.363   -9.900     1.73    0.000    0.000       26        9     2040  Maize_short_Cahul_6June_Optimum_26_MPI.PRM
  Tot(61)        6        6     2041    224.1    526.6   1173.9   441.00      0.0    194.6     29.5     15.6      0.0    120.3       42    185.8    185.2       80     0.000     0.000     0.000     0.000      107        0        0        0       16       29       11    11.977       58     40.6    4.861   -9.900     1.59    0.000    0.000       26        9     2041  Maize_short_Cahul_6June_Optimum_26_MPI.PRM
  Tot(62)        6        6     2042    208.8    442.7   1141.1   441.00      0.0    192.5     16.3      3.4      0.0     99.3       44    211.0    210.9      100     0.000     0.000     0.000     0.000      107        0        0        0       12       13        0    19.717       92     40.5    7.981   -9.900     2.57    0.000    0.000       26        9     2042  Maize_short_Cahul_6June_Optimum_26_MPI.PRM
  Tot(63)        6        6     2043    157.8    448.3   1038.8   441.00      0.0    154.1      3.7      2.4      0.0    115.2       54    202.1    201.8       93     0.000     0.000     0.000     0.000      107        0        0        0       23       13        5    16.230       85     40.5    6.578   -9.900     2.07    0.000    0.000       26        9     2043  Maize_short_Cahul_6June_Optimum_26_MPI.PRM
  Tot(64)        6        6     2044    322.2    391.5   1049.2   442.00      0.0    297.7     24.5     24.6      0.0    113.2       59    176.2    176.3      100     0.000     0.000     0.000     0.000      107        0        0        0       24        2        0    18.074       96     40.0    7.232   -9.900     2.50    0.000    0.000       26        9     2044  Maize_short_Cahul_6June_Optimum_26_MPI.PRM
  Tot(65)        6        6     2045    191.5    446.1   1213.0   442.00      0.0    186.2      5.3      0.0      0.0    104.5       51    238.7    238.2      100     0.000     0.000     0.000     0.000      107        0        0        0       10        3        0    21.412       96     40.1    8.583   -9.900     2.50    0.000    0.000       26        9     2045  Maize_short_Cahul_6June_Optimum_26_MPI.PRM
  Tot(66)        6        6     2046    132.3    434.5   1149.4   442.00      0.0    131.8      0.5      0.0      0.0     82.0       40    214.8    215.4      100     0.000     0.000     0.000     0.000      107        0        0        0       15        6        0    19.308       94     40.2    7.765   -9.900     2.62    0.000    0.000       26        9     2046  Maize_short_Cahul_6June_Optimum_26_MPI.PRM
  Tot(67)        6        6     2047    193.1    462.7   1230.8   442.00      0.0    183.7      9.4      4.6      0.0     94.3       44    242.2    242.9       95     0.000     0.000     0.000     0.000      107        0        0        0       10        6        3    20.231       89     40.1    8.109   -9.900     2.41    0.000    0.000       26        9     2047  Maize_short_Cahul_6June_Optimum_26_MPI.PRM
  Tot(68)        6        6     2048    175.3    478.6   1244.5   442.00      0.0    166.7      8.6      0.0      0.0    104.0       44    247.7    246.4      100     0.000     0.000     0.000     0.000      107        0        0        0        8        6        0    21.621       94     40.0    8.656   -9.900     2.46    0.000    0.000       26        9     2048  Maize_short_Cahul_6June_Optimum_26_MPI.PRM
  Tot(69)        6        6     2049    113.3    547.9   1192.2   443.00      0.0    113.2      0.1      0.0      0.0     90.8       30    223.3    223.9       93     0.000     0.000     0.000     0.000      107        0        0        0       15       24        7    15.798       77     40.6    6.409   -9.900     2.04    0.000    0.000       26        9     2049  Maize_short_Cahul_6June_Optimum_26_MPI.PRM
  Tot(70)        6        6     2050    160.6    461.9   1109.9   443.00      0.0    157.3      3.3      4.1      0.0    113.4       53    222.8    223.6      100     0.000     0.000     0.000     0.000      107        0        0        0       19        7        0    18.356       95     40.2    7.383   -9.900     2.20    0.000    0.000       26        9     2050  Maize_short_Cahul_6June_Optimum_26_MPI.PRM
  Tot(71)        6        6     2051    162.0    470.7   1160.2   443.00      0.0    157.4      4.6      2.6      0.0    108.4       47    219.5    219.3       93     0.000     0.000     0.000     0.000      107        0        0        0       12       12        4    18.278       84     40.4    7.389   -9.900     2.25    0.000    0.000       26        9     2051  Maize_short_Cahul_6June_Optimum_26_MPI.PRM
  Tot(72)        6        6     2052    141.5    445.8   1099.0   443.00      0.0    141.0      0.5      0.0      0.0     77.1       32    182.7    181.7      100     0.000     0.000     0.000     0.000      107        0        0        0       19        8        0    17.351       91     40.1    6.950   -9.900     2.68    0.000    0.000       26        9     2052  Maize_short_Cahul_6June_Optimum_26_MPI.PRM
  Tot(73)        6        6     2053     99.8    499.1   1195.9   443.00      0.0     99.7      0.1      0.0      0.0     75.5       33    233.0    233.4       90     0.000     0.000     0.000     0.000      107        0        0        0       13        9        8    17.732       82     40.3    7.141   -9.900     2.31    0.000    0.000       26        9     2053  Maize_short_Cahul_6June_Optimum_26_MPI.PRM
  Tot(74)        6        6     2054    199.7    469.6   1180.7   443.00      0.0    196.9      2.8      0.0      0.0    118.1       53    244.0    244.8       99     0.000     0.000     0.000     0.000      107        0        0        0       14        6        1    20.220       94     40.3    8.148   -9.900     2.25    0.000    0.000       26        9     2054  Maize_short_Cahul_6June_Optimum_26_MPI.PRM
  Tot(75)        6        6     2055    103.1    524.0   1258.3   443.00      0.0    103.0      0.1      0.0      0.0     83.5       31    229.5    228.7       90     0.000     0.000     0.000     0.000      107        0        0        0       10       17        9    16.816       76     40.5    6.806   -9.900     2.17    0.000    0.000       26        9     2055  Maize_short_Cahul_6June_Optimum_26_MPI.PRM
  Tot(76)        6        6     2056     88.4    512.2   1217.9   442.00      0.0     88.1      0.3      0.6      0.0    102.3       39    203.3    204.2       83     0.000     0.000     0.000     0.000      107        0        0        0       12       15       17    14.928       67     39.7    5.926   -9.900     1.94    0.000    0.000       26        9     2056  Maize_short_Cahul_6June_Optimum_26_MPI.PRM
  Tot(77)        6        6     2057    114.0    504.7   1259.5   442.00      0.0    111.5      2.5      1.0      0.0    106.6       45    221.0    220.1       83     0.000     0.000     0.000     0.000      107        0        0        0        9       12       13    16.830       73     40.1    6.748   -9.900     2.06    0.000    0.000       26        9     2057  Maize_short_Cahul_6June_Optimum_26_MPI.PRM
  Tot(78)        6        6     2058    136.4    545.5   1262.4   442.00      0.0    134.8      1.6      0.0      0.0     90.9       28    217.6    218.2       97     0.000     0.000     0.000     0.000      107        0        0        0       14       22        1    16.582       82     40.8    6.768   -9.900     2.19    0.000    0.000       26        9     2058  Maize_short_Cahul_6June_Optimum_26_MPI.PRM
  Tot(79)        6        6     2059    314.1    443.7   1197.8   442.00      0.0    247.5     66.6     10.7      0.0    103.8       46    208.8    208.8      100     0.000     0.000     0.000     0.000      107        0        0        0       14        5        0    19.105       94     40.1    7.660   -9.900     2.45    0.000    0.000       26        9     2059  Maize_short_Cahul_6June_Optimum_26_MPI.PRM
  Tot(80)        6        6     2060    131.0    469.0   1260.4   442.00      0.0    125.6      5.4     14.4      0.0     94.1       44    216.7    216.4       85     0.000     0.000     0.000     0.000      107        0        0        0       12       18       11    16.913       76     40.6    6.867   -9.900     2.21    0.000    0.000       26        9     2060  Maize_short_Cahul_6June_Optimum_26_MPI.PRM
  Tot(81)        6        6     2061    257.2    469.5   1218.6   441.00      0.0    191.9     65.3     33.3      0.0     87.8       37    233.0    233.3       99     0.000     0.000     0.000     0.000      107        0        0        0       11        7        0    20.035       93     40.1    8.042   -9.900     2.51    0.000    0.000       26        9     2061  Maize_short_Cahul_6June_Optimum_26_MPI.PRM
  Tot(82)        6        6     2062    158.7    405.1    978.6   441.00      0.0    156.8      1.9      3.8      0.0    112.3       66    202.4    202.1      100     0.000     0.000     0.000     0.000      107        0        0        0       24        2        0    18.089       97     40.1    7.246   -9.900     2.30    0.000    0.000       26        9     2062  Maize_short_Cahul_6June_Optimum_26_MPI.PRM
  Tot(83)        6        6     2063    189.3    487.1   1230.7   441.00      0.0    177.9     11.4      8.1      0.0    105.0       41    231.7    230.3      100     0.000     0.000     0.000     0.000      107        0        0        0       12       11        0    19.834       93     40.4    8.005   -9.900     2.38    0.000    0.000       26        9     2063  Maize_short_Cahul_6June_Optimum_26_MPI.PRM
  Tot(84)        6        6     2064    208.2    479.7   1170.8   440.00      0.0    197.3     10.9     17.5      0.0    109.5       46    225.8    227.8       97     0.000     0.000     0.000     0.000      107        0        0        0       16       16        3    18.783       89     40.6    7.631   -9.900     2.28    0.000    0.000       26        9     2064  Maize_short_Cahul_6June_Optimum_26_MPI.PRM
  Tot(85)        6        6     2065    336.7    373.3   1059.3   440.00      0.0    267.5     69.2      0.0      0.0     95.3       53    185.2    185.2      100     0.000     0.000     0.000     0.000      107        0        0        0       20        1        0    19.643       97     40.0    7.859   -9.900     2.80    0.000    0.000       26        9     2065  Maize_short_Cahul_6June_Optimum_26_MPI.PRM
  Tot(86)        6        6     2066    253.6    456.4   1100.7   440.00      0.0    229.0     24.6      0.0      0.0    118.9       54    222.7    222.6      100     0.000     0.000     0.000     0.000      107        0        0        0       18        3        0    19.107       96     40.1    7.669   -9.900     2.25    0.000    0.000       26        9     2066  Maize_short_Cahul_6June_Optimum_26_MPI.PRM
  Tot(87)        6        6     2067    243.5    382.5    998.2   439.00      0.0    216.0     27.5      0.4      0.0     96.3       55    181.3    181.4      100     0.000     0.000     0.000     0.000      107        0        0        0       22        4        0    18.403       96     40.0    7.366   -9.900     2.65    0.000    0.000       26        9     2067  Maize_short_Cahul_6June_Optimum_26_MPI.PRM
  Tot(88)        6        6     2068    132.1    435.3   1068.0   439.00      0.0    130.6      1.5      0.0      0.0     85.5       41    205.0    202.6      100     0.000     0.000     0.000     0.000      107        0        0        0       22        8        0    17.339       94     40.3    6.981   -9.900     2.40    0.000    0.000       26        9     2068  Maize_short_Cahul_6June_Optimum_26_MPI.PRM
  Tot(89)        6        6     2069    241.7    443.7   1221.3   438.00      0.0    234.9      6.8      1.5      0.0    126.5       59    227.1    229.4      100     0.000     0.000     0.000     0.000      107        0        0        0       13        2        0    20.264       96     40.0    8.109   -9.900     2.29    0.000    0.000       26        9     2069  Maize_short_Cahul_6June_Optimum_26_MPI.PRM
  Tot(90)        6        6     2070    126.1    488.4   1178.3   437.00      0.0    125.1      1.0      0.3      0.0     94.0       35    206.3    205.0      100     0.000     0.000     0.000     0.000      107        0        0        0       17       17        0    17.128       89     40.5    6.929   -9.900     2.31    0.000    0.000       26        9     2070  Maize_short_Cahul_6June_Optimum_26_MPI.PRM
  Tot(91)        6        6     2071    158.0    526.5   1301.2   437.00      0.0    138.5     19.5     14.4      0.0    104.4       40    236.9    237.6       86     0.000     0.000     0.000     0.000      107        0        0        0        5       23       12    17.123       73     40.6    6.950   -9.900     2.04    0.000    0.000       26        9     2071  Maize_short_Cahul_6June_Optimum_26_MPI.PRM
  Tot(92)        6        6     2072    200.0    509.1   1263.4   436.00      0.0    186.2     13.8     13.5      0.0    118.2       47    212.7    212.6       84     0.000     0.000     0.000     0.000      107        0        0        0       11       24       12    15.012       68     40.6    6.100   -9.900     1.84    0.000    0.000       26        9     2072  Maize_short_Cahul_6June_Optimum_26_MPI.PRM
  Tot(93)        6        6     2073    252.8    489.2   1221.9   436.00      0.0    191.5     61.3     34.3      0.0     95.1       38    210.4    210.5       90     0.000     0.000     0.000     0.000      107        0        0        0       13       20        7    15.969       77     40.7    6.493   -9.900     2.13    0.000    0.000       26        9     2073  Maize_short_Cahul_6June_Optimum_26_MPI.PRM
  Tot(94)        6        6     2074    149.2    456.4   1177.9   435.00      0.0    146.4      2.8      0.0      0.0     83.6       33    193.9    192.1      100     0.000     0.000     0.000     0.000      107        0        0        0       18       14        0    17.213       90     40.3    6.939   -9.900     2.50    0.000    0.000       26        9     2074  Maize_short_Cahul_6June_Optimum_26_MPI.PRM
  Tot(95)        6        6     2075    199.5    485.6   1222.8   435.00      0.0    190.2      9.3     11.5      0.0     97.0       44    262.5    263.2      100     0.000     0.000     0.000     0.000      107        0        0        0       12        4        0    21.198       96     40.2    8.513   -9.900     2.37    0.000    0.000       26        9     2075  Maize_short_Cahul_6June_Optimum_26_MPI.PRM
  Tot(96)        6        6     2076    190.9    519.3   1249.8   434.00      0.0    174.4     16.5     12.7      0.0     89.3       34    244.5    245.2      100     0.000     0.000     0.000     0.000      107        0        0        0       14        6        0    18.752       93     40.1    7.529   -9.900     2.26    0.000    0.000       26        9     2076  Maize_short_Cahul_6June_Optimum_26_MPI.PRM
  Tot(97)        6        6     2077    140.8    528.1   1258.8   433.00      0.0    137.2      3.6      9.8      0.0    116.7       44    222.7    222.8       83     0.000     0.000     0.000     0.000      107        0        0        0       10       18       14    16.090       71     40.3    6.483   -9.900     1.91    0.000    0.000       26        9     2077  Maize_short_Cahul_6June_Optimum_26_MPI.PRM
  Tot(98)        6        6     2078    168.7    471.2   1200.9   433.00      0.0    162.2      6.5      0.0      0.0     97.8       43    235.3    234.4       97     0.000     0.000     0.000     0.000      107        0        0        0       14       10        2    19.068       89     40.1    7.640   -9.900     2.29    0.000    0.000       26        9     2078  Maize_short_Cahul_6June_Optimum_26_MPI.PRM
  Tot(99)        6        6     2079    190.9    432.3   1102.6   432.00      0.0    173.0     17.9      4.9      0.0    109.8       52    206.6    208.2       96     0.000     0.000     0.000     0.000      107        0        0        0       14       14        2    18.900       88     40.5    7.662   -9.900     2.42    0.000    0.000       26        9     2079  Maize_short_Cahul_6June_Optimum_26_MPI.PRM
 Tot(100)        6        6     2080    143.2    479.8   1188.9   432.00      0.0    138.3      4.9      2.1      0.0    101.2       44    224.3    224.1       90     0.000     0.000     0.000     0.000      107        0        0        0       14       14        7    17.598       80     40.5    7.135   -9.900     2.19    0.000    0.000       26        9     2080  Maize_short_Cahul_6June_Optimum_26_MPI.PRM
 Tot(101)        6        6     2081    235.1    445.4   1157.0   431.00      0.0    205.9     29.2     38.9      0.0     99.0       50    227.0    227.2       95     0.000     0.000     0.000     0.000      107        0        0        0       16       16        5    18.529       86     40.7    7.537   -9.900     2.31    0.000    0.000       26        9     2081  Maize_short_Cahul_6June_Optimum_26_MPI.PRM
 Tot(102)        6        6     2082    136.6    495.2   1206.1   431.00      0.0    126.3     10.3      0.0      0.0     91.9       37    219.9    219.7       90     0.000     0.000     0.000     0.000      107        0        0        0       13       25        6    16.657       75     40.8    6.795   -9.900     2.18    0.000    0.000       26        9     2082  Maize_short_Cahul_6June_Optimum_26_MPI.PRM
 Tot(103)        6        6     2083    110.0    505.6   1232.6   430.00      0.0    109.5      0.5      0.0      0.0    104.2       41    218.1    217.8       87     0.000     0.000     0.000     0.000      107        0        0        0        9       16       12    16.078       73     40.5    6.504   -9.900     2.02    0.000    0.000       26        9     2083  Maize_short_Cahul_6June_Optimum_26_MPI.PRM
 Tot(104)        6        6     2084    235.9    452.0   1172.7   429.00      0.0    217.4     18.5     13.8      0.0    118.9       58    240.8    239.6       99     0.000     0.000     0.000     0.000      107        0        0        0       14       10        1    19.749       93     40.6    8.013   -9.900     2.23    0.000    0.000       26        9     2084  Maize_short_Cahul_6June_Optimum_26_MPI.PRM
 Tot(105)        6        6     2085    154.2    444.6   1099.5   429.00      0.0    152.5      1.7      0.0      0.0     87.1       41    221.0    221.7      100     0.000     0.000     0.000     0.000      107        0        0        0       18        4        0    19.032       95     40.1    7.640   -9.900     2.48    0.000    0.000       26        9     2085  Maize_short_Cahul_6June_Optimum_26_MPI.PRM
 Tot(106)        6        6     2086    259.6    430.7   1129.8   428.00      0.0    219.3     40.3     69.4      0.0    121.4       65    201.6    202.4       88     0.000     0.000     0.000     0.000      107        0        0        0       18       14       10    15.557       79     40.6    6.317   -9.900     1.96    0.000    0.000       26        9     2086  Maize_short_Cahul_6June_Optimum_26_MPI.PRM
 Tot(107)        6        6     2087    162.9    483.9   1234.8   428.00      0.0    161.3      1.6      0.0      0.0    100.9       42    241.5    240.8       99     0.000     0.000     0.000     0.000      107        0        0        0        9        5        1    20.509       93     40.1    8.214   -9.900     2.40    0.000    0.000       26        9     2087  Maize_short_Cahul_6June_Optimum_26_MPI.PRM
 Tot(108)        6        6     2088     54.9    566.6   1364.0   427.00      0.0     54.8      0.1      0.0      0.0     78.4       25    191.5    192.4       78     0.000     0.000     0.000     0.000       99        0        0        0        5       21       19    12.471       53     36.1    4.496   -9.900     1.67    0.000    0.000       26        9     2088  Maize_short_Cahul_6June_Optimum_26_MPI.PRM
 Tot(109)        6        6     2089    222.4    413.7   1033.2   427.00      0.0    204.5     17.9     24.9      0.0    113.8       67    223.8    222.7      100     0.000     0.000     0.000     0.000      107        0        0        0       20        1        0    19.200       97     40.1    7.691   -9.900     2.28    0.000    0.000       26        9     2089  Maize_short_Cahul_6June_Optimum_26_MPI.PRM
 Tot(110)        6        6     2090    167.8    461.9   1074.3   426.00      0.0    165.9      1.9      0.0      0.0    104.9       47    216.4    216.2      100     0.000     0.000     0.000     0.000      107        0        0        0       19        7        0    17.746       94     40.3    7.149   -9.900     2.22    0.000    0.000       26        9     2090  Maize_short_Cahul_6June_Optimum_26_MPI.PRM
 Tot(111)        6        6     2091    132.5    540.7   1392.6   425.00      0.0    131.6      0.9      0.2      0.0    128.1       48    215.6    216.6       78     0.000     0.000     0.000     0.000      107        0        0        0        6       18       17    14.993       63     40.2    6.021   -9.900     1.75    0.000    0.000       26        9     2091  Maize_short_Cahul_6June_Optimum_26_MPI.PRM
 Tot(112)        6        6     2092    262.8    413.9   1042.0   425.00      0.0    233.7     29.1      0.0      0.0     92.1       42    173.3    173.6      100     0.000     0.000     0.000     0.000      107        0        0        0       22        9        0    16.729       93     40.2    6.733   -9.900     2.54    0.000    0.000       26        9     2092  Maize_short_Cahul_6June_Optimum_26_MPI.PRM
 Tot(113)        6        6     2093    299.8    436.0   1059.1   424.00      0.0    277.7     22.1     18.2      0.0    107.0       51    206.6    206.6      100     0.000     0.000     0.000     0.000      107        0        0        0       22        3        0    17.623       95     40.1    7.058   -9.900     2.25    0.000    0.000       26        9     2093  Maize_short_Cahul_6June_Optimum_26_MPI.PRM
 Tot(114)        6        6     2094    146.8    548.5   1256.6   424.00      0.0    143.9      2.9      0.0      0.0    110.0       40    227.9    227.6       85     0.000     0.000     0.000     0.000      107        0        0        0       14       25        8    14.697       70     40.7    5.984   -9.900     1.77    0.000    0.000       26        9     2094  Maize_short_Cahul_6June_Optimum_26_MPI.PRM
 Tot(115)        6        6     2095    112.5    516.8   1214.6   423.00      0.0    112.5      0.0      0.0      0.0    107.5       35    189.7    189.8       91     0.000     0.000     0.000     0.000      107        0        0        0       16       23        5    14.861       75     40.6    6.041   -9.900     2.03    0.000    0.000       26        9     2095  Maize_short_Cahul_6June_Optimum_26_MPI.PRM
 Tot(116)        6        6     2096    113.0    567.9   1402.6   423.00      0.0    112.1      0.9      0.0      0.0     98.9       32    212.8    212.3       81     0.000     0.000     0.000     0.000      107        0        0        0        5       30       13    13.590       58     40.6    5.515   -9.900     1.77    0.000    0.000       26        9     2096  Maize_short_Cahul_6June_Optimum_26_MPI.PRM
 Tot(117)        6        6     2097    188.2    448.8   1188.0   422.00      0.0    177.3     10.9     13.3      0.0     97.6       52    249.5    249.7       95     0.000     0.000     0.000     0.000      107        0        0        0       11       16        3    19.661       88     40.8    8.024   -9.900     2.31    0.000    0.000       26        9     2097  Maize_short_Cahul_6June_Optimum_26_MPI.PRM
 Tot(118)        6        6     2098    149.2    450.4   1160.1   422.00      0.0    142.8      6.4     12.0      0.0    105.3       51    226.5    225.9       97     0.000     0.000     0.000     0.000      107        0        0        0       13        4        3    19.617       93     40.1    7.875   -9.900     2.37    0.000    0.000       26        9     2098  Maize_short_Cahul_6June_Optimum_26_MPI.PRM
 Tot(119)        6        6     2099    147.5    438.5   1051.6   421.00      0.0    144.7      2.8      0.0      0.0    101.8       54    232.7    232.1       99     0.000     0.000     0.000     0.000      107        0        0        0       17        6        1    19.756       95     40.3    7.959   -9.900     2.38    0.000    0.000       26        9     2099  Maize_short_Cahul_6June_Optimum_26_MPI.PRM
