AquaCrop 7.0 (August 2022) - Output created on (date) : 24-11-2022   at (time) : 10:24:08

    RunNr     Day1   Month1    Year1     Rain      ETo       GD     CO2      Irri   Infilt   Runoff    Drain   Upflow        E     E/Ex       Tr      TrW   Tr/Trx    SaltIn   SaltOut    SaltUp  SaltProf     Cycle   SaltStr  FertStr  WeedStr  TempStr   ExpStr   StoStr  BioMass  Brelative   HI    Y(dry)  Y(fresh)    WPet      Bin     Bout     DayN   MonthN    YearN
                                           mm       mm  degC.day    ppm        mm       mm       mm       mm       mm       mm        %       mm       mm        %    ton/ha    ton/ha    ton/ha    ton/ha      days       %        %        %        %        %        %    ton/ha        %       %    ton/ha   ton/ha    kg/m3   ton/ha   ton/ha
   Tot(1)        7        5     1981    330.3    462.9   1198.4   340.11      0.0    283.1     47.2     56.3      0.0    109.4       56    275.1    213.6      100     0.000     0.000     0.000     0.000      107        0       42       25       13        1        0    16.085       75     40.0    6.434   -9.900     1.67    0.000    0.000       27        8     1981  Maize_Short_Soroca_7May_NonOptimum_26_MOHC.PRM
   Tot(2)        7        5     1982    276.4    461.1   1144.9   341.22      0.0    241.0     35.4     37.5      0.0     91.0       42    247.8    190.3      100     0.000     0.000     0.000     0.000      107        0       42       25       15        2        0    15.482       74     40.0    6.193   -9.900     1.83    0.000    0.000       27        8     1982  Maize_Short_Soroca_7May_NonOptimum_26_MOHC.PRM
   Tot(3)        7        5     1983    225.7    446.3   1210.8   342.84      0.0    220.5      5.2      1.0      0.0     89.5       45    244.5    189.7      100     0.000     0.000     0.000     0.000      107        0       42       25        9        2        0    15.815       74     40.0    6.329   -9.900     1.90    0.000    0.000       27        8     1983  Maize_Short_Soroca_7May_NonOptimum_26_MOHC.PRM
   Tot(4)        7        5     1984    347.7    420.8   1026.2   344.40      0.0    328.6     19.1     25.4      0.0    144.0       85    231.4    179.7      100     0.000     0.000     0.000     0.000      107        0       42       25       20        0        0    14.678       75     40.0    5.871   -9.900     1.56    0.000    0.000       27        8     1984  Maize_Short_Soroca_7May_NonOptimum_26_MOHC.PRM
   Tot(5)        7        5     1985    364.9    454.7   1143.8   345.87      0.0    324.5     40.4     56.7      0.0    131.4       68    253.5    193.4      100     0.000     0.000     0.000     0.000      107        0       42       25       15        0        0    15.415       75     40.0    6.166   -9.900     1.60    0.000    0.000       27        8     1985  Maize_Short_Soroca_7May_NonOptimum_26_MOHC.PRM
   Tot(6)        7        5     1986    164.7    525.3   1219.4   347.19      0.0    164.3      0.4      0.0      0.0     97.0       40    259.0    202.5       92     0.000     0.000     0.000     0.000      107        0       42       25       12        8        5    13.939       67     40.0    5.581   -9.900     1.57    0.000    0.000       27        8     1986  Maize_Short_Soroca_7May_NonOptimum_26_MOHC.PRM
   Tot(7)        7        5     1987    273.7    465.1   1100.2   348.98      0.0    263.6     10.1     12.9      0.0    131.5       71    274.3    212.0      100     0.000     0.000     0.000     0.000      107        0       42       25       19        6        0    15.354       74     40.4    6.206   -9.900     1.53    0.000    0.000       27        8     1987  Maize_Short_Soroca_7May_NonOptimum_26_MOHC.PRM
   Tot(8)        7        5     1988    304.7    440.0   1217.4   351.45      0.0    290.1     14.6     30.8      0.0    131.0       80    283.6    221.4      100     0.000     0.000     0.000     0.000      107        0       42       25       10        1        0    16.707       75     40.0    6.687   -9.900     1.61    0.000    0.000       27        8     1988  Maize_Short_Soroca_7May_NonOptimum_26_MOHC.PRM
   Tot(9)        7        5     1989    282.2    464.6   1130.1   352.89      0.0    262.4     19.8     25.4      0.0    101.1       53    275.0    211.4      100     0.000     0.000     0.000     0.000      107        0       42       25       15        2        0    16.037       75     40.1    6.428   -9.900     1.71    0.000    0.000       27        8     1989  Maize_Short_Soroca_7May_NonOptimum_26_MOHC.PRM
  Tot(10)        7        5     1990    185.9    477.8   1101.1   354.16      0.0    184.2      1.7      2.5      0.0    113.8       58    266.9    206.5       95     0.000     0.000     0.000     0.000      107        0       42       25       18        3        4    15.302       70     40.0    6.126   -9.900     1.61    0.000    0.000       27        8     1990  Maize_Short_Soroca_7May_NonOptimum_26_MOHC.PRM
  Tot(11)        7        5     1991    456.1    412.7   1129.9   355.48      0.0    403.6     52.5     46.9      0.0    128.5       85    271.1    210.0      100     0.000     0.000     0.000     0.000      107        0       42       25       20        0        0    17.036       75     40.0    6.815   -9.900     1.71    0.000    0.000       27        8     1991  Maize_Short_Soroca_7May_NonOptimum_26_MOHC.PRM
  Tot(12)        7        5     1992    184.4    507.5   1204.4   356.27      0.0    182.6      1.8      4.3      0.0    130.3       69    268.1    207.9       83     0.000     0.000     0.000     0.000      107        0       42       25       16        5       12    13.721       61     39.7    5.450   -9.900     1.37    0.000    0.000       27        8     1992  Maize_Short_Soroca_7May_NonOptimum_26_MOHC.PRM
  Tot(13)        7        5     1993    225.5    480.7   1127.5   356.95      0.0    219.8      5.7      9.9      0.0    124.3       62    266.5    206.0       99     0.000     0.000     0.000     0.000      107        0       42       25       14        1        1    15.385       75     40.0    6.157   -9.900     1.58    0.000    0.000       27        8     1993  Maize_Short_Soroca_7May_NonOptimum_26_MOHC.PRM
  Tot(14)        7        5     1994    261.0    521.2   1199.0   358.63      0.0    230.3     30.7     13.8      0.0    119.5       54    248.1    193.8       83     0.000     0.000     0.000     0.000      107        0       42       25       13        7       12    12.542       57     39.6    4.962   -9.900     1.35    0.000    0.000       27        8     1994  Maize_Short_Soroca_7May_NonOptimum_26_MOHC.PRM
  Tot(15)        7        5     1995    305.1    494.6   1256.9   360.62      0.0    274.9     30.2     13.8      0.0    116.1       57    305.4    235.8      100     0.000     0.000     0.000     0.000      107        0       42       25        8        3        0    17.166       75     40.1    6.883   -9.900     1.63    0.000    0.000       27        8     1995  Maize_Short_Soroca_7May_NonOptimum_26_MOHC.PRM
  Tot(16)        7        5     1996    285.8    501.1   1244.3   362.37      0.0    267.2     18.6      8.4      0.0     98.7       42    272.6    211.3      100     0.000     0.000     0.000     0.000      107        0       42       25       11        3        0    16.012       74     40.0    6.406   -9.900     1.73    0.000    0.000       27        8     1996  Maize_Short_Soroca_7May_NonOptimum_26_MOHC.PRM
  Tot(17)        7        5     1997    299.6    455.8   1162.2   363.47      0.0    285.4     14.2      0.0      0.0    100.3       49    256.7    198.8      100     0.000     0.000     0.000     0.000      107        0       42       25       14        2        0    16.593       75     40.0    6.637   -9.900     1.86    0.000    0.000       27        8     1997  Maize_Short_Soroca_7May_NonOptimum_26_MOHC.PRM
  Tot(18)        7        5     1998    308.7    445.2   1198.7   366.50      0.0    287.4     21.3      4.9      0.0    123.3       70    271.9    209.6      100     0.000     0.000     0.000     0.000      107        0       42       25       17        1        0    16.304       75     40.0    6.522   -9.900     1.65    0.000    0.000       27        8     1998  Maize_Short_Soroca_7May_NonOptimum_26_MOHC.PRM
  Tot(19)        7        5     1999    155.2    512.9   1310.0   368.14      0.0    155.2      0.0      0.0      0.0     95.6       41    266.2    209.2       90     0.000     0.000     0.000     0.000      107        0       42       25       10       13        7    14.714       63     40.4    5.950   -9.900     1.64    0.000    0.000       27        8     1999  Maize_Short_Soroca_7May_NonOptimum_26_MOHC.PRM
  Tot(20)        7        5     2000    240.2    521.6   1223.8   369.41      0.0    230.6      9.6      0.0      0.0     90.6       37    285.6    222.0      100     0.000     0.000     0.000     0.000      107        0       42       25       13        5        0    15.911       73     40.0    6.367   -9.900     1.69    0.000    0.000       27        8     2000  Maize_Short_Soroca_7May_NonOptimum_26_MOHC.PRM
  Tot(21)        7        5     2001    255.6    491.7   1222.5   371.07      0.0    247.3      8.3     18.7      0.0    121.2       66    307.8    236.8       97     0.000     0.000     0.000     0.000      107        0       42       25       16        1        3    16.698       73     40.0    6.676   -9.900     1.56    0.000    0.000       27        8     2001  Maize_Short_Soroca_7May_NonOptimum_26_MOHC.PRM
  Tot(22)        7        5     2002    365.4    509.4   1309.6   373.16      0.0    331.0     34.4      0.0      0.0    127.4       58    304.0    236.2       99     0.000     0.000     0.000     0.000      107        0       42       25       10       16        1    16.622       72     40.8    6.790   -9.900     1.57    0.000    0.000       27        8     2002  Maize_Short_Soroca_7May_NonOptimum_26_MOHC.PRM
  Tot(23)        7        5     2003    329.8    556.2   1316.9   375.80      0.0    274.8     55.0      3.2      0.0     87.3       30    282.5    219.4      100     0.000     0.000     0.000     0.000      107        0       42       25        7        9        0    16.158       71     40.0    6.463   -9.900     1.75    0.000    0.000       27        8     2003  Maize_Short_Soroca_7May_NonOptimum_26_MOHC.PRM
  Tot(24)        7        5     2004    239.4    487.9   1103.3   377.49      0.0    217.8     21.6      0.0      0.0     72.2       31    266.1    210.2      100     0.000     0.000     0.000     0.000      107        0       42       25       19       14        0    15.790       71     40.2    6.347   -9.900     1.88    0.000    0.000       27        8     2004  Maize_Short_Soroca_7May_NonOptimum_26_MOHC.PRM
  Tot(25)        7        5     2005    262.5    469.1   1193.2   379.80      0.0    243.3     19.2     22.7      0.0    108.8       56    282.0    217.7      100     0.000     0.000     0.000     0.000      107        0       42       25       11        4        0    16.961       74     40.1    6.802   -9.900     1.74    0.000    0.000       27        8     2005  Maize_Short_Soroca_7May_NonOptimum_26_MOHC.PRM
  Tot(26)        7        5     2006    315.6    495.5   1200.9   381.90      0.0    301.7     13.9     21.8      0.0    141.7       77    304.6    237.1       96     0.000     0.000     0.000     0.000      107        0       42       25       15        5        3    16.305       71     40.3    6.565   -9.900     1.47    0.000    0.000       27        8     2006  Maize_Short_Soroca_7May_NonOptimum_26_MOHC.PRM
  Tot(27)        7        5     2007    152.4    612.6   1444.4   383.77      0.0    152.1      0.3      0.0      0.0    125.1       36    232.9    186.0       83     0.000     0.000     0.000     0.000      107        0       42       25        3       24       12    11.493       49     40.4    4.644   -9.900     1.30    0.000    0.000       27        8     2007  Maize_Short_Soroca_7May_NonOptimum_26_MOHC.PRM
  Tot(28)        7        5     2008    341.8    530.8   1250.9   385.59      0.0    280.9     60.9      0.0      0.0    111.5       51    324.8    251.6       99     0.000     0.000     0.000     0.000      107        0       42       25        8       14        0    16.962       72     40.6    6.889   -9.900     1.58    0.000    0.000       27        8     2008  Maize_Short_Soroca_7May_NonOptimum_26_MOHC.PRM
  Tot(29)        7        5     2009    220.9    551.9   1276.6   387.37      0.0    219.1      1.8      1.4      0.0    136.6       60    298.5    232.8       89     0.000     0.000     0.000     0.000      107        0       42       25       11        4       10    14.959       64     39.9    5.964   -9.900     1.37    0.000    0.000       27        8     2009  Maize_Short_Soroca_7May_NonOptimum_26_MOHC.PRM
  Tot(30)        7        5     2010    341.4    489.0   1373.7   389.85      0.0    312.2     29.2     48.1      0.0    130.7       71    315.5    242.4       99     0.000     0.000     0.000     0.000      107        0       42       25        8        0        0    17.689       75     40.0    7.076   -9.900     1.59    0.000    0.000       27        8     2010  Maize_Short_Soroca_7May_NonOptimum_26_MOHC.PRM
  Tot(31)        7        5     2011    187.9    543.3   1287.2   391.63      0.0    185.0      2.9      1.0      0.0     95.4       38    289.1    225.3       96     0.000     0.000     0.000     0.000      107        0       42       25        8        5        3    15.927       70     40.1    6.380   -9.900     1.66    0.000    0.000       27        8     2011  Maize_Short_Soroca_7May_NonOptimum_26_MOHC.PRM
  Tot(32)        7        5     2012    144.1    600.6   1390.6   393.82      0.0    143.9      0.2      0.0      0.0    126.5       41    224.5    180.3       78     0.000     0.000     0.000     0.000      107        0       42       25        8       27       16    10.463       45     40.3    4.212   -9.900     1.20    0.000    0.000       27        8     2012  Maize_Short_Soroca_7May_NonOptimum_26_MOHC.PRM
  Tot(33)        7        5     2013    224.9    523.6   1339.0   396.48      0.0    216.4      8.5     10.5      0.0    145.5       69    271.1    210.1       85     0.000     0.000     0.000     0.000      107        0       42       25        6        4       11    14.795       62     39.5    5.848   -9.900     1.40    0.000    0.000       27        8     2013  Maize_Short_Soroca_7May_NonOptimum_26_MOHC.PRM
  Tot(34)        7        5     2014    310.9    505.5   1289.2   398.55      0.0    284.3     26.6     17.9      0.0    125.3       62    311.0    240.4      100     0.000     0.000     0.000     0.000      107        0       42       25        9        5        0    17.066       74     40.1    6.845   -9.900     1.57    0.000    0.000       27        8     2014  Maize_Short_Soroca_7May_NonOptimum_26_MOHC.PRM
  Tot(35)        7        5     2015     53.8    613.9   1324.9   401.00      0.0     53.8      0.0      0.2      0.0     81.0       23    188.9    152.1       77     0.000     0.000     0.000     0.000       98        0       42       25        8       27       19     8.990       38     35.0    3.146   -9.900     1.17    0.000    0.000       27        8     2015  Maize_Short_Soroca_7May_NonOptimum_26_MOHC.PRM
  Tot(36)        7        5     2016    260.0    524.9   1288.5   403.00      0.0    257.7      2.3      0.0      0.0    146.2       78    314.3    240.9       91     0.000     0.000     0.000     0.000      107        0       42       25       12        3        7    15.831       67     40.1    6.342   -9.900     1.38    0.000    0.000       27        8     2016  Maize_Short_Soroca_7May_NonOptimum_26_MOHC.PRM
  Tot(37)        7        5     2017    198.7    557.0   1274.9   405.00      0.0    197.7      1.0      0.3      0.0    125.5       55    288.9    226.5       86     0.000     0.000     0.000     0.000      107        0       42       25       10        8       10    14.814       63     40.0    5.920   -9.900     1.43    0.000    0.000       27        8     2017  Maize_Short_Soroca_7May_NonOptimum_26_MOHC.PRM
  Tot(38)        7        5     2018    243.9    523.5   1389.5   408.00      0.0    231.6     12.3      0.0      0.0     92.6       38    294.9    227.1      100     0.000     0.000     0.000     0.000      107        0       42       25        7        5        0    17.113       73     40.0    6.847   -9.900     1.77    0.000    0.000       27        8     2018  Maize_Short_Soroca_7May_NonOptimum_26_MOHC.PRM
  Tot(39)        7        5     2019    283.0    528.5   1353.3   410.00      0.0    260.1     22.9     36.0      0.0    154.5       77    289.8    227.1       87     0.000     0.000     0.000     0.000      107        0       42       25        4        5       10    15.346       65     39.9    6.123   -9.900     1.38    0.000    0.000       27        8     2019  Maize_Short_Soroca_7May_NonOptimum_26_MOHC.PRM
  Tot(40)        7        5     2020    118.0    668.3   1435.1   412.00      0.0    114.0      4.0      0.2      0.0    109.0       34    226.7    178.5       72     0.000     0.000     0.000     0.000       98        0       42       25       14       15       22     9.652       40     33.8    3.266   -9.900     0.98    0.000    0.000       27        8     2020  Maize_Short_Soroca_7May_NonOptimum_26_MOHC.PRM
  Tot(41)        7        5     2021    192.5    627.1   1458.6   414.00      0.0    165.7     26.8     16.0      0.0    137.2       41    202.2    161.1       73     0.000     0.000     0.000     0.000      107        0       42       25        6       27       18     8.920       37     40.1    3.573   -9.900     1.05    0.000    0.000       27        8     2021  Maize_Short_Soroca_7May_NonOptimum_26_MOHC.PRM
  Tot(42)        7        5     2022    199.2    632.5   1519.2   417.00      0.0    194.1      5.1      0.0      0.0    139.7       55    279.0    218.2       75     0.000     0.000     0.000     0.000      107        0       42       25        5       14       19    12.744       53     36.6    4.666   -9.900     1.11    0.000    0.000       27        8     2022  Maize_Short_Soroca_7May_NonOptimum_26_MOHC.PRM
  Tot(43)        7        5     2023     85.8    729.8   1593.0   419.00      0.0     85.7      0.1      0.0      0.0    111.3       26    187.6    149.8       71     0.000     0.000     0.000     0.000       91        0       42       25        4       27       22     7.955       33     27.4    2.177   -9.900     0.74    0.000    0.000       27        8     2023  Maize_Short_Soroca_7May_NonOptimum_26_MOHC.PRM
  Tot(44)        7        5     2024    217.1    566.2   1381.2   421.00      0.0    198.7     18.4     43.6      0.0    126.1       58    254.9    198.4       77     0.000     0.000     0.000     0.000      107        0       42       25        6        4       18    13.064       54     38.7    5.059   -9.900     1.33    0.000    0.000       27        8     2024  Maize_Short_Soroca_7May_NonOptimum_26_MOHC.PRM
  Tot(45)        7        5     2025    169.7    604.6   1309.1   423.00      0.0    142.9     26.8      0.0      0.0     99.0       30    174.8    139.7       69     0.000     0.000     0.000     0.000       88        0       42       25       16       28       21     7.376       32     24.5    1.808   -9.900     0.70    0.000    0.000       27        8     2025  Maize_Short_Soroca_7May_NonOptimum_26_MOHC.PRM
  Tot(46)        7        5     2026    100.0    696.0   1535.0   424.00      0.0     97.3      2.7      0.0      0.0     77.4       22    244.2    193.1       75     0.000     0.000     0.000     0.000      102        0       42       25        8       16       20    10.278       43     37.5    3.856   -9.900     1.20    0.000    0.000       27        8     2026  Maize_Short_Soroca_7May_NonOptimum_26_MOHC.PRM
  Tot(47)        7        5     2027     92.7    665.5   1509.6   426.00      0.0     91.9      0.8      0.0      0.0    111.3       32    192.6    152.5       70     0.000     0.000     0.000     0.000       90        0       42       25       10       24       22     8.193       34     26.7    2.185   -9.900     0.73    0.000    0.000       27        8     2027  Maize_Short_Soroca_7May_NonOptimum_26_MOHC.PRM
  Tot(48)        7        5     2028     90.1    712.2   1502.1   428.00      0.0     90.1      0.0      0.0      0.0    104.8       26    181.1    144.3       68     0.000     0.000     0.000     0.000       85        0       42       25        9       29       22     6.547       27     21.4    1.403   -9.900     0.51    0.000    0.000       27        8     2028  Maize_Short_Soroca_7May_NonOptimum_26_MOHC.PRM
  Tot(49)        7        5     2029    171.7    589.4   1427.0   429.00      0.0    149.2     22.5     40.3      0.0    104.3       43    226.4    176.8       73     0.000     0.000     0.000     0.000       99        0       42       25       11        9       21    10.663       44     34.9    3.722   -9.900     1.13    0.000    0.000       27        8     2029  Maize_Short_Soroca_7May_NonOptimum_26_MOHC.PRM
  Tot(50)        7        5     2030     53.6    763.8   1646.4   431.00      0.0     53.6      0.0      0.0      0.0     88.8       18    165.9    133.5       69     0.000     0.000     0.000     0.000       85        0       42       25        5       32       21     6.579       27     21.5    1.415   -9.900     0.57    0.000    0.000       27        8     2030  Maize_Short_Soroca_7May_NonOptimum_26_MOHC.PRM
  Tot(51)        7        5     2031    168.2    643.0   1499.2   432.00      0.0    163.3      4.9      0.0      0.0    119.3       42    271.6    213.7       75     0.000     0.000     0.000     0.000      107        0       42       25        7       15       20    12.213       50     38.5    4.701   -9.900     1.20    0.000    0.000       27        8     2031  Maize_Short_Soroca_7May_NonOptimum_26_MOHC.PRM
  Tot(52)        7        5     2032     95.5    738.4   1646.0   433.00      0.0     93.9      1.6      0.1      0.0    121.3       29    176.7    141.1       66     0.000     0.000     0.000     0.000       86        0       42       25        3       27       23     6.984       28     12.2    0.853   -9.900     0.29    0.000    0.000       27        8     2032  Maize_Short_Soroca_7May_NonOptimum_26_MOHC.PRM
  Tot(53)        7        5     2033    140.7    716.2   1646.8   435.00      0.0    140.2      0.5      0.0      0.0    143.3       38    198.5    156.8       66     0.000     0.000     0.000     0.000       91        0       42       25        1       21       23     8.380       35     27.3    2.285   -9.900     0.68    0.000    0.000       27        8     2033  Maize_Short_Soroca_7May_NonOptimum_26_MOHC.PRM
  Tot(54)        7        5     2034    297.3    494.6   1282.7   436.00      0.0    276.3     21.0     17.1      0.0    129.5       71    313.9    240.4       99     0.000     0.000     0.000     0.000      107        0       42       25       10        1        1    17.807       74     40.0    7.123   -9.900     1.61    0.000    0.000       27        8     2034  Maize_Short_Soroca_7May_NonOptimum_26_MOHC.PRM
  Tot(55)        7        5     2035    159.0    630.8   1476.2   437.00      0.0    154.9      4.1      9.9      0.0    134.7       46    231.4    184.9       73     0.000     0.000     0.000     0.000       98        0       42       25        3       19       21    10.223       42     34.2    3.493   -9.900     0.96    0.000    0.000       27        8     2035  Maize_Short_Soroca_7May_NonOptimum_26_MOHC.PRM
  Tot(56)        7        5     2036    110.6    726.0   1529.3   438.00      0.0    109.6      1.0      0.0      0.0    104.6       28    219.7    172.8       69     0.000     0.000     0.000     0.000       93        0       42       25        6       18       23     8.766       36     29.1    2.552   -9.900     0.81    0.000    0.000       27        8     2036  Maize_Short_Soroca_7May_NonOptimum_26_MOHC.PRM
  Tot(57)        7        5     2037     92.9    701.7   1574.6   438.00      0.0     92.9      0.0      0.0      0.0    116.7       29    183.6    146.0       71     0.000     0.000     0.000     0.000       88        0       42       25        4       28       21     7.446       30     24.7    1.837   -9.900     0.62    0.000    0.000       27        8     2037  Maize_Short_Soroca_7May_NonOptimum_26_MOHC.PRM
  Tot(58)        7        5     2038    263.1    513.5   1309.1   439.00      0.0    232.0     31.1     62.8      0.0    129.3       75    265.5    205.2       80     0.000     0.000     0.000     0.000      107        0       42       25       12        2       15    14.178       59     39.1    5.539   -9.900     1.40    0.000    0.000       27        8     2038  Maize_Short_Soroca_7May_NonOptimum_26_MOHC.PRM
  Tot(59)        7        5     2039     90.9    685.9   1574.2   440.00      0.0     90.6      0.3      0.0      0.0    114.9       30    175.4    139.8       69     0.000     0.000     0.000     0.000       86        0       42       25        4       28       22     7.181       29     22.5    1.617   -9.900     0.59    0.000    0.000       27        8     2039  Maize_Short_Soroca_7May_NonOptimum_26_MOHC.PRM
  Tot(60)        7        5     2040     48.4    701.3   1465.3   440.00      0.0     48.4      0.0      0.0      0.0     74.1       18    174.3    139.7       71     0.000     0.000     0.000     0.000       89        0       42       25        6       30       21     7.211       29     25.7    1.853   -9.900     0.76    0.000    0.000       27        8     2040  Maize_Short_Soroca_7May_NonOptimum_26_MOHC.PRM
  Tot(61)        7        5     2041     97.7    680.6   1475.0   441.00      0.0     97.6      0.1      0.0      0.0    108.1       30    204.4    161.4       72     0.000     0.000     0.000     0.000       92        0       42       25       12       23       21     8.623       35     28.4    2.451   -9.900     0.79    0.000    0.000       27        8     2041  Maize_Short_Soroca_7May_NonOptimum_26_MOHC.PRM
  Tot(62)        7        5     2042    266.7    532.6   1327.8   441.00      0.0    222.2     44.5     57.9      0.0    109.7       55    273.9    212.4       82     0.000     0.000     0.000     0.000      107        0       42       25       11       13       13    14.338       59     40.1    5.751   -9.900     1.50    0.000    0.000       27        8     2042  Maize_Short_Soroca_7May_NonOptimum_26_MOHC.PRM
  Tot(63)        7        5     2043    136.8    698.8   1620.3   441.00      0.0    134.0      2.8      0.1      0.0    145.0       40    209.8    165.6       69     0.000     0.000     0.000     0.000       95        0       42       25        3       18       22     9.251       38     30.9    2.858   -9.900     0.81    0.000    0.000       27        8     2043  Maize_Short_Soroca_7May_NonOptimum_26_MOHC.PRM
  Tot(64)        7        5     2044    252.2    574.9   1396.4   442.00      0.0    235.8     16.4     20.5      0.0    133.3       68    306.3    237.2       82     0.000     0.000     0.000     0.000      107        0       42       25        9        3       15    14.617       60     39.3    5.743   -9.900     1.31    0.000    0.000       27        8     2044  Maize_Short_Soroca_7May_NonOptimum_26_MOHC.PRM
  Tot(65)        7        5     2045    250.7    576.8   1412.1   442.00      0.0    215.0     35.7     57.6      0.0    140.8       61    238.1    186.1       74     0.000     0.000     0.000     0.000      106        0       42       25        3        7       20    12.120       50     38.8    4.701   -9.900     1.24    0.000    0.000       27        8     2045  Maize_Short_Soroca_7May_NonOptimum_26_MOHC.PRM
  Tot(66)        7        5     2046     60.1    800.1   1762.6   442.00      0.0     59.5      0.6      1.1      0.0     93.2       17    153.1    124.9       70     0.000     0.000     0.000     0.000       82        0       42       25        1       37       21     5.354       22      7.8    0.415   -9.900     0.17    0.000    0.000       27        8     2046  Maize_Short_Soroca_7May_NonOptimum_26_MOHC.PRM
  Tot(67)        7        5     2047    154.9    644.4   1502.1   442.00      0.0    151.7      3.2     10.1      0.0    129.6       44    236.3    185.4       74     0.000     0.000     0.000     0.000      100        0       42       25        8       12       21    10.764       44     35.6    3.833   -9.900     1.05    0.000    0.000       27        8     2047  Maize_Short_Soroca_7May_NonOptimum_26_MOHC.PRM
  Tot(68)        7        5     2048    208.9    546.4   1345.0   442.00      0.0    204.1      4.8      6.8      0.0    127.1       58    278.2    216.0       85     0.000     0.000     0.000     0.000      107        0       42       25        9        8       11    14.041       59     40.1    5.635   -9.900     1.39    0.000    0.000       27        8     2048  Maize_Short_Soroca_7May_NonOptimum_26_MOHC.PRM
  Tot(69)        7        5     2049    280.1    557.0   1462.6   443.00      0.0    259.4     20.7      0.0      0.0    112.4       48    323.2    251.6       96     0.000     0.000     0.000     0.000      107        0       42       25        5        6        2    16.764       70     40.1    6.726   -9.900     1.54    0.000    0.000       27        8     2049  Maize_Short_Soroca_7May_NonOptimum_26_MOHC.PRM
  Tot(70)        7        5     2050    182.8    598.4   1426.7   443.00      0.0    181.6      1.2      0.8      0.0    135.1       59    256.5    200.4       71     0.000     0.000     0.000     0.000      107        0       42       25       10        7       20    11.484       47     33.5    3.843   -9.900     0.98    0.000    0.000       27        8     2050  Maize_Short_Soroca_7May_NonOptimum_26_MOHC.PRM
  Tot(71)        7        5     2051    194.1    636.0   1526.3   443.00      0.0    189.5      4.6      9.6      0.0    136.1       53    268.5    209.2       76     0.000     0.000     0.000     0.000      104        0       42       25        7        5       21    11.846       49     38.3    4.534   -9.900     1.13    0.000    0.000       27        8     2051  Maize_Short_Soroca_7May_NonOptimum_26_MOHC.PRM
  Tot(72)        7        5     2052    177.3    581.0   1477.3   443.00      0.0    177.0      0.3      0.0      0.0    125.3       55    275.8    215.2       81     0.000     0.000     0.000     0.000      107        0       42       25        6       10       17    13.325       54     39.3    5.237   -9.900     1.31    0.000    0.000       27        8     2052  Maize_Short_Soroca_7May_NonOptimum_26_MOHC.PRM
  Tot(73)        7        5     2053    134.3    625.8   1534.4   443.00      0.0    134.3      0.0      0.0      0.0    131.4       44    225.3    176.9       71     0.000     0.000     0.000     0.000      104        0       42       25        4       15       23    10.858       45     38.6    4.189   -9.900     1.18    0.000    0.000       27        8     2053  Maize_Short_Soroca_7May_NonOptimum_26_MOHC.PRM
  Tot(74)        7        5     2054    190.8    561.0   1436.0   443.00      0.0    176.6     14.2     22.6      0.0    144.3       59    229.0    179.6       75     0.000     0.000     0.000     0.000      107        0       42       25        3       15       20    11.914       49     39.8    4.739   -9.900     1.27    0.000    0.000       27        8     2054  Maize_Short_Soroca_7May_NonOptimum_26_MOHC.PRM
  Tot(75)        7        5     2055    170.9    592.9   1442.2   443.00      0.0    160.4     10.5     28.0      0.0    127.5       45    218.5    174.0       73     0.000     0.000     0.000     0.000      107        0       42       25       10       27       20    10.639       43     39.9    4.240   -9.900     1.23    0.000    0.000       27        8     2055  Maize_Short_Soroca_7May_NonOptimum_26_MOHC.PRM
  Tot(76)        7        5     2056    153.5    647.7   1502.1   442.00      0.0    148.3      5.2      0.0      0.0    108.3       39    247.0    193.2       73     0.000     0.000     0.000     0.000      102        0       42       25        3        9       21    11.327       46     37.2    4.216   -9.900     1.20    0.000    0.000       27        8     2056  Maize_Short_Soroca_7May_NonOptimum_26_MOHC.PRM
  Tot(77)        7        5     2057    182.9    649.5   1512.6   442.00      0.0    176.2      6.7      5.6      0.0    115.8       47    283.6    220.3       71     0.000     0.000     0.000     0.000      107        0       42       25        9        4       20    12.992       53     38.5    5.001   -9.900     1.25    0.000    0.000       27        8     2057  Maize_Short_Soroca_7May_NonOptimum_26_MOHC.PRM
  Tot(78)        7        5     2058     97.4    650.5   1497.0   442.00      0.0     91.2      6.2     11.2      0.0     93.0       29    207.9    165.8       69     0.000     0.000     0.000     0.000      105        0       42       25        8       27       26     9.247       37     39.1    3.615   -9.900     1.20    0.000    0.000       27        8     2058  Maize_Short_Soroca_7May_NonOptimum_26_MOHC.PRM
  Tot(79)        7        5     2059    174.3    619.7   1502.1   442.00      0.0    168.9      5.4      1.9      0.0    124.8       42    254.6    202.2       76     0.000     0.000     0.000     0.000      107        0       42       25        8       28       16    11.794       48     40.3    4.751   -9.900     1.25    0.000    0.000       27        8     2059  Maize_Short_Soroca_7May_NonOptimum_26_MOHC.PRM
  Tot(80)        7        5     2060    227.9    556.1   1362.5   442.00      0.0    192.0     35.9     65.7      0.0    114.6       56    239.8    188.1       72     0.000     0.000     0.000     0.000      107        0       42       25       11       12       23    11.872       49     38.6    4.584   -9.900     1.29    0.000    0.000       27        8     2060  Maize_Short_Soroca_7May_NonOptimum_26_MOHC.PRM
  Tot(81)        7        5     2061    246.9    594.0   1438.8   441.00      0.0    186.0     60.9     72.9      0.0    111.9       42    223.8    175.4       75     0.000     0.000     0.000     0.000      101        0       42       25        9       10       21    11.036       45     36.9    4.068   -9.900     1.23    0.000    0.000       27        8     2061  Maize_Short_Soroca_7May_NonOptimum_26_MOHC.PRM
  Tot(82)        7        5     2062    153.6    615.4   1466.2   441.00      0.0    152.6      1.0      0.0      0.0    112.5       41    259.1    203.2       75     0.000     0.000     0.000     0.000      107        0       42       25        6       19       18    12.377       51     40.1    4.959   -9.900     1.33    0.000    0.000       27        8     2062  Maize_Short_Soroca_7May_NonOptimum_26_MOHC.PRM
  Tot(83)        7        5     2063    167.9    592.9   1463.1   441.00      0.0    162.6      5.3     20.7      0.0    130.1       51    223.0    175.1       71     0.000     0.000     0.000     0.000       98        0       42       25        9       15       22    10.309       42     33.8    3.482   -9.900     1.01    0.000    0.000       27        8     2063  Maize_Short_Soroca_7May_NonOptimum_26_MOHC.PRM
  Tot(84)        7        5     2064    171.2    650.8   1535.8   440.00      0.0    163.9      7.3      1.4      0.0    122.8       39    205.9    161.6       68     0.000     0.000     0.000     0.000       94        0       42       25        4       17       23     9.290       38     29.9    2.775   -9.900     0.86    0.000    0.000       27        8     2064  Maize_Short_Soroca_7May_NonOptimum_26_MOHC.PRM
  Tot(85)        7        5     2065     84.3    686.6   1540.6   440.00      0.0     84.2      0.1      0.0      0.0    112.2       26    168.6    135.6       70     0.000     0.000     0.000     0.000       86        0       42       25        2       32       21     6.378       26     22.8    1.451   -9.900     0.54    0.000    0.000       27        8     2065  Maize_Short_Soroca_7May_NonOptimum_26_MOHC.PRM
  Tot(86)        7        5     2066    271.4    582.8   1442.4   440.00      0.0    231.4     40.0      2.7      0.0    124.8       52    274.8    213.0       80     0.000     0.000     0.000     0.000      107        0       42       25        5        9       13    13.427       55     39.6    5.316   -9.900     1.33    0.000    0.000       27        8     2066  Maize_Short_Soroca_7May_NonOptimum_26_MOHC.PRM
  Tot(87)        7        5     2067    190.7    588.6   1362.0   439.00      0.0    177.9     12.8      0.0      0.0    142.6       48    195.8    156.3       72     0.000     0.000     0.000     0.000      107        0       42       25        8       25       16     8.806       36     39.9    3.516   -9.900     1.04    0.000    0.000       27        8     2067  Maize_Short_Soroca_7May_NonOptimum_26_MOHC.PRM
  Tot(88)        7        5     2068    250.0    524.9   1287.3   439.00      0.0    237.3     12.7      5.4      0.0    111.1       53    314.6    242.5       96     0.000     0.000     0.000     0.000      107        0       42       25       10        2        3    17.142       71     40.1    6.868   -9.900     1.61    0.000    0.000       27        8     2068  Maize_Short_Soroca_7May_NonOptimum_26_MOHC.PRM
  Tot(89)        7        5     2069    111.0    608.4   1479.9   438.00      0.0    110.5      0.5      1.5      0.0    119.9       39    201.2    161.1       72     0.000     0.000     0.000     0.000      107        0       42       25        6       25       23     9.550       39     40.0    3.818   -9.900     1.19    0.000    0.000       27        8     2069  Maize_Short_Soroca_7May_NonOptimum_26_MOHC.PRM
  Tot(90)        7        5     2070    258.4    529.0   1332.9   437.00      0.0    221.0     37.4     64.8      0.0    108.9       52    246.9    192.7       79     0.000     0.000     0.000     0.000      107        0       42       25       12       11       15    12.401       51     39.8    4.932   -9.900     1.39    0.000    0.000       27        8     2070  Maize_Short_Soroca_7May_NonOptimum_26_MOHC.PRM
  Tot(91)        7        5     2071     87.4    599.7   1410.7   437.00      0.0     87.2      0.2      0.0      0.0    105.4       32    194.7    155.2       75     0.000     0.000     0.000     0.000       97        0       42       25        6       25       19     9.296       39     33.9    3.156   -9.900     1.07    0.000    0.000       27        8     2071  Maize_Short_Soroca_7May_NonOptimum_26_MOHC.PRM
  Tot(92)        7        5     2072     89.1    584.4   1335.0   436.00      0.0     84.1      5.0     11.5      0.0     88.4       32    200.4    159.0       70     0.000     0.000     0.000     0.000      107        0       42       25       10       26       23     9.631       40     39.9    3.840   -9.900     1.33    0.000    0.000       27        8     2072  Maize_Short_Soroca_7May_NonOptimum_26_MOHC.PRM
  Tot(93)        7        5     2073    109.5    689.2   1610.0   436.00      0.0    107.9      1.6      0.0      0.0    132.6       33    180.5    144.2       72     0.000     0.000     0.000     0.000       88        0       42       25        1       28       21     7.576       31     25.1    1.900   -9.900     0.62    0.000    0.000       27        8     2073  Maize_Short_Soroca_7May_NonOptimum_26_MOHC.PRM
  Tot(94)        7        5     2074    151.5    570.9   1257.6   435.00      0.0    148.5      3.0      5.2      0.0    119.8       55    250.1    194.5       76     0.000     0.000     0.000     0.000      107        0       42       25       17       10       19    12.196       52     39.0    4.761   -9.900     1.29    0.000    0.000       27        8     2074  Maize_Short_Soroca_7May_NonOptimum_26_MOHC.PRM
  Tot(95)        7        5     2075    202.2    545.1   1385.7   435.00      0.0    189.0     13.2     19.1      0.0    136.9       68    252.3    196.0       76     0.000     0.000     0.000     0.000      107        0       42       25        8        6       17    13.092       55     39.1    5.125   -9.900     1.32    0.000    0.000       27        8     2075  Maize_Short_Soroca_7May_NonOptimum_26_MOHC.PRM
  Tot(96)        7        5     2076    110.4    696.8   1605.1   434.00      0.0    109.8      0.6      0.0      0.0    125.4       33    196.3    156.3       72     0.000     0.000     0.000     0.000       91        0       42       25        5       26       22     8.297       34     27.5    2.279   -9.900     0.72    0.000    0.000       27        8     2076  Maize_Short_Soroca_7May_NonOptimum_26_MOHC.PRM
  Tot(97)        7        5     2077     97.6    711.1   1509.0   433.00      0.0     97.6      0.0      0.0      0.0    126.1       30    172.5    138.0       70     0.000     0.000     0.000     0.000       86        0       42       25        5       30       22     6.784       28     22.6    1.535   -9.900     0.52    0.000    0.000       27        8     2077  Maize_Short_Soroca_7May_NonOptimum_26_MOHC.PRM
  Tot(98)        7        5     2078    201.6    589.2   1509.9   433.00      0.0    196.5      5.1     10.4      0.0    152.5       68    262.7    204.5       74     0.000     0.000     0.000     0.000      107        0       42       25        4        9       21    12.816       52     38.6    4.941   -9.900     1.19    0.000    0.000       27        8     2078  Maize_Short_Soroca_7May_NonOptimum_26_MOHC.PRM
  Tot(99)        7        5     2079    106.4    609.7   1416.7   432.00      0.0    106.0      0.4      0.0      0.0    100.7       37    229.4    179.7       74     0.000     0.000     0.000     0.000      102        0       42       25       10       13       21    10.825       45     37.7    4.082   -9.900     1.25    0.000    0.000       27        8     2079  Maize_Short_Soroca_7May_NonOptimum_26_MOHC.PRM
 Tot(100)        7        5     2080    149.3    617.9   1415.8   432.00      0.0    135.8     13.5     18.8      0.0    116.3       41    221.7    174.0       72     0.000     0.000     0.000     0.000       97        0       42       25        9       16       22     9.987       41     33.1    3.303   -9.900     0.99    0.000    0.000       27        8     2080  Maize_Short_Soroca_7May_NonOptimum_26_MOHC.PRM
 Tot(101)        7        5     2081    105.0    704.0   1626.0   431.00      0.0    103.9      1.1      0.1      0.0    121.1       30    183.9    146.3       69     0.000     0.000     0.000     0.000       88        0       42       25        2       27       22     7.639       31     24.8    1.893   -9.900     0.64    0.000    0.000       27        8     2081  Maize_Short_Soroca_7May_NonOptimum_26_MOHC.PRM
 Tot(102)        7        5     2082    135.8    708.3   1612.6   431.00      0.0    124.9     10.9     24.6      0.0    127.6       31    183.7    146.8       71     0.000     0.000     0.000     0.000       89        0       42       25        5       28       21     7.936       32     25.8    2.050   -9.900     0.67    0.000    0.000       27        8     2082  Maize_Short_Soroca_7May_NonOptimum_26_MOHC.PRM
 Tot(103)        7        5     2083    175.0    641.2   1468.7   430.00      0.0    167.6      7.4     21.4      0.0    140.4       44    205.6    161.8       70     0.000     0.000     0.000     0.000       92        0       42       25        8       19       22     8.678       36     28.2    2.451   -9.900     0.75    0.000    0.000       27        8     2083  Maize_Short_Soroca_7May_NonOptimum_26_MOHC.PRM
 Tot(104)        7        5     2084    140.3    662.8   1554.2   429.00      0.0    136.4      3.9      6.6      0.0    124.8       40    223.5    175.4       71     0.000     0.000     0.000     0.000       95        0       42       25        7       17       22     9.455       39     30.9    2.922   -9.900     0.85    0.000    0.000       27        8     2084  Maize_Short_Soroca_7May_NonOptimum_26_MOHC.PRM
 Tot(105)        7        5     2085    131.8    633.0   1482.7   429.00      0.0    129.9      1.9      1.1      0.0    134.4       46    215.6    169.5       69     0.000     0.000     0.000     0.000      102        0       42       25        7       20       25     9.685       40     37.9    3.673   -9.900     1.06    0.000    0.000       27        8     2085  Maize_Short_Soroca_7May_NonOptimum_26_MOHC.PRM
 Tot(106)        7        5     2086    134.4    610.2   1422.7   428.00      0.0    132.1      2.3      0.0      0.0    103.9       37    247.1    193.8       76     0.000     0.000     0.000     0.000      107        0       42       25        7       11       17    11.921       49     39.0    4.647   -9.900     1.32    0.000    0.000       27        8     2086  Maize_Short_Soroca_7May_NonOptimum_26_MOHC.PRM
 Tot(107)        7        5     2087    193.7    659.5   1607.1   428.00      0.0    180.3     13.4     12.4      0.0    132.5       36    236.8    190.1       77     0.000     0.000     0.000     0.000      107        0       42       25        2       29       17    10.516       43     39.7    4.171   -9.900     1.13    0.000    0.000       27        8     2087  Maize_Short_Soroca_7May_NonOptimum_26_MOHC.PRM
 Tot(108)        7        5     2088    260.9    551.5   1348.7   427.00      0.0    238.8     22.1     28.9      0.0    134.0       69    271.3    210.9       77     0.000     0.000     0.000     0.000      107        0       42       25       14        5       15    13.018       55     38.7    5.040   -9.900     1.24    0.000    0.000       27        8     2088  Maize_Short_Soroca_7May_NonOptimum_26_MOHC.PRM
 Tot(109)        7        5     2089    237.9    569.6   1463.6   427.00      0.0    233.9      4.0      0.0      0.0    153.4       62    287.9    224.0       86     0.000     0.000     0.000     0.000      107        0       42       25        3        8       12    14.524       60     39.6    5.752   -9.900     1.30    0.000    0.000       27        8     2089  Maize_Short_Soroca_7May_NonOptimum_26_MOHC.PRM
 Tot(110)        7        5     2090    136.3    695.6   1643.8   426.00      0.0    136.1      0.2      0.0      0.0    141.6       35    193.4    155.0       73     0.000     0.000     0.000     0.000       90        0       42       25        5       26       21     7.996       33     27.0    2.161   -9.900     0.66    0.000    0.000       27        8     2090  Maize_Short_Soroca_7May_NonOptimum_26_MOHC.PRM
 Tot(111)        7        5     2091    231.1    524.8   1394.7   425.00      0.0    227.6      3.5      3.4      0.0    122.5       51    274.7    214.9       91     0.000     0.000     0.000     0.000      107        0       42       25        6       18        6    15.351       64     40.7    6.243   -9.900     1.57    0.000    0.000       27        8     2091  Maize_Short_Soroca_7May_NonOptimum_26_MOHC.PRM
 Tot(112)        7        5     2092    114.9    564.5   1335.1   425.00      0.0    112.7      2.2      7.7      0.0    100.8       44    230.1    180.2       75     0.000     0.000     0.000     0.000      106        0       42       25       14        8       21    11.814       50     38.5    4.553   -9.900     1.38    0.000    0.000       27        8     2092  Maize_Short_Soroca_7May_NonOptimum_26_MOHC.PRM
 Tot(113)        7        5     2093    132.8    603.0   1457.6   424.00      0.0    131.8      1.0      0.4      0.0    131.1       53    227.8    178.0       69     0.000     0.000     0.000     0.000      104        0       42       25        9       12       24    10.984       45     38.0    4.177   -9.900     1.17    0.000    0.000       27        8     2093  Maize_Short_Soroca_7May_NonOptimum_26_MOHC.PRM
 Tot(114)        7        5     2094    103.9    582.3   1375.1   424.00      0.0    103.1      0.8      1.7      0.0    103.7       40    220.5    173.1       76     0.000     0.000     0.000     0.000      101        0       42       25       11       14       21    10.707       44     37.0    3.960   -9.900     1.23    0.000    0.000       27        8     2094  Maize_Short_Soroca_7May_NonOptimum_26_MOHC.PRM
 Tot(115)        7        5     2095    112.4    673.8   1513.4   423.00      0.0    111.9      0.5      0.0      0.0    114.8       36    217.9    171.1       70     0.000     0.000     0.000     0.000       95        0       42       25       10       16       22     9.473       39     31.1    2.946   -9.900     0.89    0.000    0.000       27        8     2095  Maize_Short_Soroca_7May_NonOptimum_26_MOHC.PRM
 Tot(116)        7        5     2096    109.1    658.8   1573.1   423.00      0.0    109.1      0.0      0.0      0.0    130.8       32    172.6    138.8       74     0.000     0.000     0.000     0.000       92        0       42       25        2       31       19     7.453       30     29.0    2.162   -9.900     0.74    0.000    0.000       27        8     2096  Maize_Short_Soroca_7May_NonOptimum_26_MOHC.PRM
 Tot(117)        7        5     2097    182.8    557.7   1435.3   422.00      0.0    180.6      2.2      6.9      0.0    126.4       62    274.3    213.2       78     0.000     0.000     0.000     0.000      107        0       42       25        7        8       16    13.890       57     39.2    5.441   -9.900     1.36    0.000    0.000       27        8     2097  Maize_Short_Soroca_7May_NonOptimum_26_MOHC.PRM
 Tot(118)        7        5     2098    104.8    579.2   1269.1   422.00      0.0    103.7      1.1      2.7      0.0    113.0       43    212.3    168.3       71     0.000     0.000     0.000     0.000      107        0       42       25       14       24       24    10.475       43     39.3    4.116   -9.900     1.27    0.000    0.000       27        8     2098  Maize_Short_Soroca_7May_NonOptimum_26_MOHC.PRM
 Tot(119)        7        5     2099     49.4    770.9   1611.0   421.00      0.0     49.3      0.1      0.0      0.0     86.1       17    159.1    129.4       71     0.000     0.000     0.000     0.000       84        0       42       25       10       35       20     6.004       25     20.7    1.245   -9.900     0.52    0.000    0.000       27        8     2099  Maize_Short_Soroca_7May_NonOptimum_26_MOHC.PRM
