AquaCrop 7.0 (August 2022) - Output created on (date) : 24-11-2022   at (time) : 10:29:24

    RunNr     Day1   Month1    Year1     Rain      ETo       GD     CO2      Irri   Infilt   Runoff    Drain   Upflow        E     E/Ex       Tr      TrW   Tr/Trx    SaltIn   SaltOut    SaltUp  SaltProf     Cycle   SaltStr  FertStr  WeedStr  TempStr   ExpStr   StoStr  BioMass  Brelative   HI    Y(dry)  Y(fresh)    WPet      Bin     Bout     DayN   MonthN    YearN
                                           mm       mm  degC.day    ppm        mm       mm       mm       mm       mm       mm        %       mm       mm        %    ton/ha    ton/ha    ton/ha    ton/ha      days       %        %        %        %        %        %    ton/ha        %       %    ton/ha   ton/ha    kg/m3   ton/ha   ton/ha
   Tot(1)        7        5     1981    330.3    462.9   1198.4   340.11      0.0    283.1     47.2     56.3      0.0    109.4       56    275.1    213.3      100     0.000     0.000     0.000     0.000      107        0       42       25       13        1        0    16.085       75     40.0    6.434   -9.900     1.67    0.000    0.000       27        8     1981  Maize_Short_Soroca_7May_NonOptimum_85_MPI.PRM
   Tot(2)        7        5     1982    276.4    461.1   1144.9   341.22      0.0    241.0     35.4     37.5      0.0     91.0       42    247.8    190.3      100     0.000     0.000     0.000     0.000      107        0       42       25       15        2        0    15.482       74     40.0    6.193   -9.900     1.83    0.000    0.000       27        8     1982  Maize_Short_Soroca_7May_NonOptimum_85_MPI.PRM
   Tot(3)        7        5     1983    225.7    446.3   1210.8   342.84      0.0    220.5      5.2      1.0      0.0     89.5       45    244.5    189.7      100     0.000     0.000     0.000     0.000      107        0       42       25        9        2        0    15.815       74     40.0    6.329   -9.900     1.90    0.000    0.000       27        8     1983  Maize_Short_Soroca_7May_NonOptimum_85_MPI.PRM
   Tot(4)        7        5     1984    347.7    420.8   1026.2   344.40      0.0    328.6     19.1     25.4      0.0    144.0       85    231.4    179.7      100     0.000     0.000     0.000     0.000      107        0       42       25       20        0        0    14.678       75     40.0    5.871   -9.900     1.56    0.000    0.000       27        8     1984  Maize_Short_Soroca_7May_NonOptimum_85_MPI.PRM
   Tot(5)        7        5     1985    364.9    454.7   1143.8   345.87      0.0    324.5     40.4     56.7      0.0    131.4       68    253.5    193.4      100     0.000     0.000     0.000     0.000      107        0       42       25       15        0        0    15.415       75     40.0    6.166   -9.900     1.60    0.000    0.000       27        8     1985  Maize_Short_Soroca_7May_NonOptimum_85_MPI.PRM
   Tot(6)        7        5     1986    164.7    525.3   1219.4   347.19      0.0    164.3      0.4      0.0      0.0     97.0       40    259.0    202.5       92     0.000     0.000     0.000     0.000      107        0       42       25       12        8        5    13.939       67     40.0    5.581   -9.900     1.57    0.000    0.000       27        8     1986  Maize_Short_Soroca_7May_NonOptimum_85_MPI.PRM
   Tot(7)        7        5     1987    273.7    465.1   1100.2   348.98      0.0    263.6     10.1     12.9      0.0    131.5       71    274.3    212.0      100     0.000     0.000     0.000     0.000      107        0       42       25       19        6        0    15.354       74     40.4    6.206   -9.900     1.53    0.000    0.000       27        8     1987  Maize_Short_Soroca_7May_NonOptimum_85_MPI.PRM
   Tot(8)        7        5     1988    304.7    440.0   1217.4   351.45      0.0    290.1     14.6     30.8      0.0    131.0       80    283.6    221.4      100     0.000     0.000     0.000     0.000      107        0       42       25       10        1        0    16.707       75     40.0    6.687   -9.900     1.61    0.000    0.000       27        8     1988  Maize_Short_Soroca_7May_NonOptimum_85_MPI.PRM
   Tot(9)        7        5     1989    282.2    464.6   1130.1   352.89      0.0    262.4     19.8     25.4      0.0    101.1       53    275.0    211.4      100     0.000     0.000     0.000     0.000      107        0       42       25       15        2        0    16.037       75     40.1    6.428   -9.900     1.71    0.000    0.000       27        8     1989  Maize_Short_Soroca_7May_NonOptimum_85_MPI.PRM
  Tot(10)        7        5     1990    185.9    477.8   1101.1   354.16      0.0    184.2      1.7      2.5      0.0    113.8       58    266.9    206.5       95     0.000     0.000     0.000     0.000      107        0       42       25       18        3        4    15.302       70     40.0    6.126   -9.900     1.61    0.000    0.000       27        8     1990  Maize_Short_Soroca_7May_NonOptimum_85_MPI.PRM
  Tot(11)        7        5     1991    456.1    412.7   1129.9   355.48      0.0    403.6     52.5     46.9      0.0    128.5       85    271.1    210.0      100     0.000     0.000     0.000     0.000      107        0       42       25       20        0        0    17.036       75     40.0    6.815   -9.900     1.71    0.000    0.000       27        8     1991  Maize_Short_Soroca_7May_NonOptimum_85_MPI.PRM
  Tot(12)        7        5     1992    184.4    507.5   1204.4   356.27      0.0    182.6      1.8      4.3      0.0    130.3       69    268.1    207.9       83     0.000     0.000     0.000     0.000      107        0       42       25       16        5       12    13.721       61     39.7    5.450   -9.900     1.37    0.000    0.000       27        8     1992  Maize_Short_Soroca_7May_NonOptimum_85_MPI.PRM
  Tot(13)        7        5     1993    225.5    480.7   1127.5   356.95      0.0    219.8      5.7      9.9      0.0    124.3       62    266.5    206.0       99     0.000     0.000     0.000     0.000      107        0       42       25       14        1        1    15.385       75     40.0    6.157   -9.900     1.58    0.000    0.000       27        8     1993  Maize_Short_Soroca_7May_NonOptimum_85_MPI.PRM
  Tot(14)        7        5     1994    261.0    521.2   1199.0   358.63      0.0    230.3     30.7     13.8      0.0    119.5       54    248.1    193.8       83     0.000     0.000     0.000     0.000      107        0       42       25       13        7       12    12.542       57     39.6    4.962   -9.900     1.35    0.000    0.000       27        8     1994  Maize_Short_Soroca_7May_NonOptimum_85_MPI.PRM
  Tot(15)        7        5     1995    305.1    494.6   1256.9   360.62      0.0    274.9     30.2     13.8      0.0    116.1       57    305.4    235.8      100     0.000     0.000     0.000     0.000      107        0       42       25        8        3        0    17.166       75     40.1    6.883   -9.900     1.63    0.000    0.000       27        8     1995  Maize_Short_Soroca_7May_NonOptimum_85_MPI.PRM
  Tot(16)        7        5     1996    285.8    501.1   1244.3   362.37      0.0    267.2     18.6      8.4      0.0     98.7       42    272.6    211.3      100     0.000     0.000     0.000     0.000      107        0       42       25       11        3        0    16.012       74     40.0    6.406   -9.900     1.73    0.000    0.000       27        8     1996  Maize_Short_Soroca_7May_NonOptimum_85_MPI.PRM
  Tot(17)        7        5     1997    299.6    455.8   1162.2   363.47      0.0    285.4     14.2      0.0      0.0    100.3       49    256.7    198.8      100     0.000     0.000     0.000     0.000      107        0       42       25       14        2        0    16.593       75     40.0    6.637   -9.900     1.86    0.000    0.000       27        8     1997  Maize_Short_Soroca_7May_NonOptimum_85_MPI.PRM
  Tot(18)        7        5     1998    308.7    445.2   1198.7   366.50      0.0    287.4     21.3      4.9      0.0    123.3       70    271.9    209.6      100     0.000     0.000     0.000     0.000      107        0       42       25       17        1        0    16.304       75     40.0    6.522   -9.900     1.65    0.000    0.000       27        8     1998  Maize_Short_Soroca_7May_NonOptimum_85_MPI.PRM
  Tot(19)        7        5     1999    155.2    512.9   1310.0   368.14      0.0    155.2      0.0      0.0      0.0     95.6       41    266.2    209.2       90     0.000     0.000     0.000     0.000      107        0       42       25       10       13        7    14.714       63     40.4    5.950   -9.900     1.64    0.000    0.000       27        8     1999  Maize_Short_Soroca_7May_NonOptimum_85_MPI.PRM
  Tot(20)        7        5     2000    240.2    521.6   1223.8   369.41      0.0    230.6      9.6      0.0      0.0     90.6       37    285.6    222.0      100     0.000     0.000     0.000     0.000      107        0       42       25       13        5        0    15.911       73     40.0    6.367   -9.900     1.69    0.000    0.000       27        8     2000  Maize_Short_Soroca_7May_NonOptimum_85_MPI.PRM
  Tot(21)        7        5     2001    255.6    491.7   1222.5   371.07      0.0    247.3      8.3     18.7      0.0    121.2       66    307.8    236.8       97     0.000     0.000     0.000     0.000      107        0       42       25       16        1        3    16.698       73     40.0    6.676   -9.900     1.56    0.000    0.000       27        8     2001  Maize_Short_Soroca_7May_NonOptimum_85_MPI.PRM
  Tot(22)        7        5     2002    365.4    509.4   1309.6   373.16      0.0    331.0     34.4      0.0      0.0    127.4       58    304.0    236.2       99     0.000     0.000     0.000     0.000      107        0       42       25       10       16        1    16.622       72     40.8    6.790   -9.900     1.57    0.000    0.000       27        8     2002  Maize_Short_Soroca_7May_NonOptimum_85_MPI.PRM
  Tot(23)        7        5     2003    329.8    556.2   1316.9   375.80      0.0    274.8     55.0      3.2      0.0     87.3       30    282.5    219.4      100     0.000     0.000     0.000     0.000      107        0       42       25        7        9        0    16.158       71     40.0    6.463   -9.900     1.75    0.000    0.000       27        8     2003  Maize_Short_Soroca_7May_NonOptimum_85_MPI.PRM
  Tot(24)        7        5     2004    239.4    487.9   1103.3   377.49      0.0    217.8     21.6      0.0      0.0     72.2       31    266.1    210.2      100     0.000     0.000     0.000     0.000      107        0       42       25       19       14        0    15.790       71     40.2    6.347   -9.900     1.88    0.000    0.000       27        8     2004  Maize_Short_Soroca_7May_NonOptimum_85_MPI.PRM
  Tot(25)        7        5     2005    262.5    469.1   1193.2   379.80      0.0    243.3     19.2     22.7      0.0    108.8       56    282.0    217.7      100     0.000     0.000     0.000     0.000      107        0       42       25       11        4        0    16.961       74     40.1    6.802   -9.900     1.74    0.000    0.000       27        8     2005  Maize_Short_Soroca_7May_NonOptimum_85_MPI.PRM
  Tot(26)        7        5     2006    315.6    495.5   1200.9   381.90      0.0    301.7     13.9     21.8      0.0    141.7       77    304.6    237.1       96     0.000     0.000     0.000     0.000      107        0       42       25       15        5        3    16.305       71     40.3    6.565   -9.900     1.47    0.000    0.000       27        8     2006  Maize_Short_Soroca_7May_NonOptimum_85_MPI.PRM
  Tot(27)        7        5     2007    152.4    612.6   1444.4   383.77      0.0    152.1      0.3      0.0      0.0    125.1       36    232.9    186.0       83     0.000     0.000     0.000     0.000      107        0       42       25        3       24       12    11.493       49     40.4    4.644   -9.900     1.30    0.000    0.000       27        8     2007  Maize_Short_Soroca_7May_NonOptimum_85_MPI.PRM
  Tot(28)        7        5     2008    341.8    530.8   1250.9   385.59      0.0    280.9     60.9      0.0      0.0    111.5       51    324.8    251.6       99     0.000     0.000     0.000     0.000      107        0       42       25        8       14        0    16.962       72     40.6    6.889   -9.900     1.58    0.000    0.000       27        8     2008  Maize_Short_Soroca_7May_NonOptimum_85_MPI.PRM
  Tot(29)        7        5     2009    220.9    551.9   1276.6   387.37      0.0    219.1      1.8      1.4      0.0    136.6       60    298.5    232.8       89     0.000     0.000     0.000     0.000      107        0       42       25       11        4       10    14.959       64     39.9    5.964   -9.900     1.37    0.000    0.000       27        8     2009  Maize_Short_Soroca_7May_NonOptimum_85_MPI.PRM
  Tot(30)        7        5     2010    341.4    489.0   1373.7   389.85      0.0    312.2     29.2     48.1      0.0    130.7       71    315.5    242.4       99     0.000     0.000     0.000     0.000      107        0       42       25        8        0        0    17.689       75     40.0    7.076   -9.900     1.59    0.000    0.000       27        8     2010  Maize_Short_Soroca_7May_NonOptimum_85_MPI.PRM
  Tot(31)        7        5     2011    187.9    543.3   1287.2   391.63      0.0    185.0      2.9      1.0      0.0     95.4       38    289.1    225.3       96     0.000     0.000     0.000     0.000      107        0       42       25        8        5        3    15.927       70     40.1    6.380   -9.900     1.66    0.000    0.000       27        8     2011  Maize_Short_Soroca_7May_NonOptimum_85_MPI.PRM
  Tot(32)        7        5     2012    144.1    600.6   1390.6   393.82      0.0    143.9      0.2      0.0      0.0    126.5       41    224.5    180.3       78     0.000     0.000     0.000     0.000      107        0       42       25        8       27       16    10.463       45     40.3    4.212   -9.900     1.20    0.000    0.000       27        8     2012  Maize_Short_Soroca_7May_NonOptimum_85_MPI.PRM
  Tot(33)        7        5     2013    224.9    523.6   1339.0   396.48      0.0    216.4      8.5     10.5      0.0    145.5       69    271.1    210.1       85     0.000     0.000     0.000     0.000      107        0       42       25        6        4       11    14.795       62     39.5    5.848   -9.900     1.40    0.000    0.000       27        8     2013  Maize_Short_Soroca_7May_NonOptimum_85_MPI.PRM
  Tot(34)        7        5     2014    310.9    505.5   1289.2   398.55      0.0    284.3     26.6     17.9      0.0    125.3       62    311.0    240.4      100     0.000     0.000     0.000     0.000      107        0       42       25        9        5        0    17.066       74     40.1    6.845   -9.900     1.57    0.000    0.000       27        8     2014  Maize_Short_Soroca_7May_NonOptimum_85_MPI.PRM
  Tot(35)        7        5     2015     53.8    613.9   1324.9   402.00      0.0     53.8      0.0      0.2      0.0     81.0       23    188.9    152.1       77     0.000     0.000     0.000     0.000       98        0       42       25        8       27       19     8.997       38     35.0    3.149   -9.900     1.17    0.000    0.000       27        8     2015  Maize_Short_Soroca_7May_NonOptimum_85_MPI.PRM
  Tot(36)        7        5     2016    260.0    524.9   1288.5   404.00      0.0    257.7      2.3      0.0      0.0    146.2       78    314.1    240.7       91     0.000     0.000     0.000     0.000      107        0       42       25       12        3        7    15.832       67     40.1    6.342   -9.900     1.38    0.000    0.000       27        8     2016  Maize_Short_Soroca_7May_NonOptimum_85_MPI.PRM
  Tot(37)        7        5     2017    198.7    557.0   1274.9   407.00      0.0    197.7      1.0      0.3      0.0    125.5       55    289.0    226.6       86     0.000     0.000     0.000     0.000      107        0       42       25       10        8       10    14.847       63     40.0    5.934   -9.900     1.43    0.000    0.000       27        8     2017  Maize_Short_Soroca_7May_NonOptimum_85_MPI.PRM
  Tot(38)        7        5     2018    243.9    523.5   1389.5   410.00      0.0    231.6     12.3      0.0      0.0     92.6       38    294.8    227.0      100     0.000     0.000     0.000     0.000      107        0       42       25        7        5        0    17.130       73     40.0    6.854   -9.900     1.77    0.000    0.000       27        8     2018  Maize_Short_Soroca_7May_NonOptimum_85_MPI.PRM
  Tot(39)        7        5     2019    283.0    528.5   1353.3   413.00      0.0    260.1     22.9     36.0      0.0    154.4       77    289.9    227.1       87     0.000     0.000     0.000     0.000      107        0       42       25        4        5       10    15.384       65     39.9    6.138   -9.900     1.38    0.000    0.000       27        8     2019  Maize_Short_Soroca_7May_NonOptimum_85_MPI.PRM
  Tot(40)        7        5     2020    211.1    455.6   1073.4   416.00      0.0    207.8      3.3      9.8      0.0    115.0       71    272.7    210.7       98     0.000     0.000     0.000     0.000      107        0       42       25       18        2        2    15.860       73     40.1    6.356   -9.900     1.64    0.000    0.000       27        8     2020  Maize_Short_Soroca_7May_NonOptimum_85_MPI.PRM
  Tot(41)        7        5     2021    231.0    484.1   1095.3   419.00      0.0    218.4     12.6      4.0      0.0     91.9       41    252.9    194.1      100     0.000     0.000     0.000     0.000      107        0       42       25       16        3        0    15.218       73     40.0    6.088   -9.900     1.77    0.000    0.000       27        8     2021  Maize_Short_Soroca_7May_NonOptimum_85_MPI.PRM
  Tot(42)        7        5     2022    303.1    465.6   1145.8   422.00      0.0    270.8     32.3     39.0      0.0    102.9       48    245.2    190.4      100     0.000     0.000     0.000     0.000      107        0       42       25       15        2        0    15.823       74     40.0    6.329   -9.900     1.82    0.000    0.000       27        8     2022  Maize_Short_Soroca_7May_NonOptimum_85_MPI.PRM
  Tot(43)        7        5     2023    281.1    430.6   1045.6   425.00      0.0    262.6     18.5      0.0      0.0    112.1       62    244.2    189.0      100     0.000     0.000     0.000     0.000      107        0       42       25       25       11        0    16.057       74     40.5    6.497   -9.900     1.82    0.000    0.000       27        8     2023  Maize_Short_Soroca_7May_NonOptimum_85_MPI.PRM
  Tot(44)        7        5     2024    185.4    468.4   1057.4   428.00      0.0    185.3      0.1      0.0      0.0    117.1       59    247.7    194.3       95     0.000     0.000     0.000     0.000      107        0       42       25       17        6        3    15.172       70     40.2    6.096   -9.900     1.67    0.000    0.000       27        8     2024  Maize_Short_Soroca_7May_NonOptimum_85_MPI.PRM
  Tot(45)        7        5     2025    136.1    481.0   1103.0   431.00      0.0    136.1      0.0      0.0      0.0    106.8       53    241.0    188.0       88     0.000     0.000     0.000     0.000      107        0       42       25       19        9       10    13.935       62     40.0    5.574   -9.900     1.60    0.000    0.000       27        8     2025  Maize_Short_Soroca_7May_NonOptimum_85_MPI.PRM
  Tot(46)        7        5     2026    234.5    529.4   1274.6   435.00      0.0    225.3      9.2      0.0      0.0     97.9       33    249.1    194.0      100     0.000     0.000     0.000     0.000      107        0       42       25       11       11        0    15.838       70     40.2    6.364   -9.900     1.83    0.000    0.000       27        8     2026  Maize_Short_Soroca_7May_NonOptimum_85_MPI.PRM
  Tot(47)        7        5     2027    225.7    448.6   1111.1   438.00      0.0    222.1      3.6      3.2      0.0    111.9       59    257.5    199.2      100     0.000     0.000     0.000     0.000      107        0       42       25       14        6        0    16.580       74     40.2    6.672   -9.900     1.81    0.000    0.000       27        8     2027  Maize_Short_Soroca_7May_NonOptimum_85_MPI.PRM
  Tot(48)        7        5     2028    297.5    460.2   1061.2   442.00      0.0    290.2      7.3      7.6      0.0    127.9       72    265.6    205.4      100     0.000     0.000     0.000     0.000      107        0       42       25       19        1        0    16.488       75     40.0    6.600   -9.900     1.68    0.000    0.000       27        8     2028  Maize_Short_Soroca_7May_NonOptimum_85_MPI.PRM
  Tot(49)        7        5     2029    366.0    426.8   1141.6   445.00      0.0    301.1     64.9     64.8      0.0    106.9       57    242.3    188.9      100     0.000     0.000     0.000     0.000      107        0       42       25       12        2        0    17.375       75     40.0    6.950   -9.900     1.99    0.000    0.000       27        8     2029  Maize_Short_Soroca_7May_NonOptimum_85_MPI.PRM
  Tot(50)        7        5     2030    161.7    436.4    956.2   449.00      0.0    160.8      0.9      0.0      0.0     97.0       53    220.3    171.3      100     0.000     0.000     0.000     0.000      107        0       42       25       25        3        0    14.903       75     40.1    5.978   -9.900     1.88    0.000    0.000       27        8     2030  Maize_Short_Soroca_7May_NonOptimum_85_MPI.PRM
  Tot(51)        7        5     2031    410.0    430.7   1079.4   452.00      0.0    355.7     54.3     81.6      0.0    115.1       62    234.3    180.6      100     0.000     0.000     0.000     0.000      107        0       42       25       17        1        0    16.195       75     40.0    6.478   -9.900     1.85    0.000    0.000       27        8     2031  Maize_Short_Soroca_7May_NonOptimum_85_MPI.PRM
  Tot(52)        7        5     2032    186.8    512.5   1130.6   456.00      0.0    177.7      9.1      0.0      0.0     84.5       38    253.9    198.2       90     0.000     0.000     0.000     0.000      107        0       42       25       17       16        6    14.445       64     40.7    5.874   -9.900     1.74    0.000    0.000       27        8     2032  Maize_Short_Soroca_7May_NonOptimum_85_MPI.PRM
  Tot(53)        7        5     2033    331.4    478.7   1081.5   460.00      0.0    294.4     37.0     43.1      0.0    123.1       67    284.3    219.8      100     0.000     0.000     0.000     0.000      107        0       42       25       17        2        0    16.909       75     40.1    6.781   -9.900     1.66    0.000    0.000       27        8     2033  Maize_Short_Soroca_7May_NonOptimum_85_MPI.PRM
  Tot(54)        7        5     2034    225.4    527.6   1292.5   464.00      0.0    218.0      7.4      0.5      0.0    115.8       48    264.4    209.2       90     0.000     0.000     0.000     0.000      107        0       42       25        8       20        6    15.008       63     40.2    6.028   -9.900     1.59    0.000    0.000       27        8     2034  Maize_Short_Soroca_7May_NonOptimum_85_MPI.PRM
  Tot(55)        7        5     2035    161.4    514.7   1099.9   468.00      0.0    161.0      0.4      0.0      0.0    121.7       57    253.3    198.1       87     0.000     0.000     0.000     0.000      107        0       42       25       18       15       12    13.802       60     40.4    5.572   -9.900     1.49    0.000    0.000       27        8     2035  Maize_Short_Soroca_7May_NonOptimum_85_MPI.PRM
  Tot(56)        7        5     2036    151.6    539.2   1170.6   472.00      0.0    150.8      0.8      0.0      0.0    121.3       55    249.0    193.6       81     0.000     0.000     0.000     0.000      107        0       42       25       17       12       14    13.600       58     39.9    5.429   -9.900     1.47    0.000    0.000       27        8     2036  Maize_Short_Soroca_7May_NonOptimum_85_MPI.PRM
  Tot(57)        7        5     2037    215.1    438.2   1090.0   476.00      0.0    212.7      2.4      0.0      0.0    123.3       70    253.7    196.4      100     0.000     0.000     0.000     0.000      107        0       42       25       18        1        0    17.057       75     40.0    6.827   -9.900     1.81    0.000    0.000       27        8     2037  Maize_Short_Soroca_7May_NonOptimum_85_MPI.PRM
  Tot(58)        7        5     2038    126.5    526.3   1151.5   481.00      0.0    126.5      0.0      0.0      0.0    100.3       45    241.8    187.4       86     0.000     0.000     0.000     0.000      107        0       42       25       18        9       10    13.462       62     40.2    5.408   -9.900     1.58    0.000    0.000       27        8     2038  Maize_Short_Soroca_7May_NonOptimum_85_MPI.PRM
  Tot(59)        7        5     2039    220.1    466.0   1224.5   485.00      0.0    210.2      9.9     10.5      0.0     91.0       48    273.8    210.3      100     0.000     0.000     0.000     0.000      107        0       42       25        7        4        0    17.487       74     40.0    6.997   -9.900     1.92    0.000    0.000       27        8     2039  Maize_Short_Soroca_7May_NonOptimum_85_MPI.PRM
  Tot(60)        7        5     2040    289.5    417.3   1050.2   489.00      0.0    266.9     22.6     27.8      0.0    125.6       78    239.4    186.4      100     0.000     0.000     0.000     0.000      107        0       42       25       19        0        0    16.421       75     40.0    6.568   -9.900     1.80    0.000    0.000       27        8     2040  Maize_Short_Soroca_7May_NonOptimum_85_MPI.PRM
  Tot(61)        7        5     2041    246.8    506.0   1151.8   494.00      0.0    223.9     22.9      0.0      0.0    104.0       46    265.9    207.8       97     0.000     0.000     0.000     0.000      107        0       42       25       15        9        2    15.769       71     40.2    6.331   -9.900     1.71    0.000    0.000       27        8     2041  Maize_Short_Soroca_7May_NonOptimum_85_MPI.PRM
  Tot(62)        7        5     2042    256.3    481.5   1163.4   499.00      0.0    248.7      7.6      0.0      0.0    114.0       53    263.9    202.8      100     0.000     0.000     0.000     0.000      107        0       42       25       14        6        0    17.014       74     40.1    6.824   -9.900     1.81    0.000    0.000       27        8     2042  Maize_Short_Soroca_7May_NonOptimum_85_MPI.PRM
  Tot(63)        7        5     2043    188.0    464.2   1175.0   504.00      0.0    185.3      2.7     10.9      0.0    115.6       71    268.3    209.2       91     0.000     0.000     0.000     0.000      107        0       42       25       13        5        7    16.198       67     40.2    6.506   -9.900     1.69    0.000    0.000       27        8     2043  Maize_Short_Soroca_7May_NonOptimum_85_MPI.PRM
  Tot(64)        7        5     2044    250.7    458.4   1100.9   508.00      0.0    236.8     13.9     20.2      0.0    113.4       65    269.2    207.2      100     0.000     0.000     0.000     0.000      107        0       42       25       17        6        0    16.718       74     40.3    6.731   -9.900     1.76    0.000    0.000       27        8     2044  Maize_Short_Soroca_7May_NonOptimum_85_MPI.PRM
  Tot(65)        7        5     2045    162.0    493.0   1167.8   513.00      0.0    159.1      2.9     10.0      0.0    113.7       52    240.6    190.8       89     0.000     0.000     0.000     0.000      107        0       42       25       13       13        7    15.312       64     40.3    6.177   -9.900     1.74    0.000    0.000       27        8     2045  Maize_Short_Soroca_7May_NonOptimum_85_MPI.PRM
  Tot(66)        7        5     2046    335.4    450.7   1162.0   519.00      0.0    314.9     20.5     22.0      0.0    127.0       70    264.1    203.4      100     0.000     0.000     0.000     0.000      107        0       42       25       13        0        0    17.658       75     40.0    7.063   -9.900     1.81    0.000    0.000       27        8     2046  Maize_Short_Soroca_7May_NonOptimum_85_MPI.PRM
  Tot(67)        7        5     2047    262.9    427.1   1095.4   524.00      0.0    258.0      4.9      4.1      0.0    128.2       77    251.2    194.7      100     0.000     0.000     0.000     0.000      107        0       42       25       14       10        0    16.638       74     40.5    6.734   -9.900     1.77    0.000    0.000       27        8     2047  Maize_Short_Soroca_7May_NonOptimum_85_MPI.PRM
  Tot(68)        7        5     2048    216.9    528.3   1242.2   529.00      0.0    199.9     17.0     21.5      0.0    106.8       48    263.6    206.7       88     0.000     0.000     0.000     0.000      107        0       42       25       10       12        6    14.976       63     40.3    6.037   -9.900     1.63    0.000    0.000       27        8     2048  Maize_Short_Soroca_7May_NonOptimum_85_MPI.PRM
  Tot(69)        7        5     2049    172.0    482.7   1149.5   535.00      0.0    171.8      0.2      0.0      0.0     99.3       52    265.5    204.7       98     0.000     0.000     0.000     0.000      107        0       42       25       16        3        2    16.391       73     40.1    6.573   -9.900     1.80    0.000    0.000       27        8     2049  Maize_Short_Soroca_7May_NonOptimum_85_MPI.PRM
  Tot(70)        7        5     2050    245.6    460.1   1164.7   541.00      0.0    238.8      6.8      0.0      0.0    100.4       47    238.9    185.7      100     0.000     0.000     0.000     0.000      107        0       42       25       12        5        0    17.168       74     40.2    6.896   -9.900     2.03    0.000    0.000       27        8     2050  Maize_Short_Soroca_7May_NonOptimum_85_MPI.PRM
  Tot(71)        7        5     2051    265.6    479.6   1131.7   546.00      0.0    247.6     18.0     12.9      0.0    103.5       57    275.5    211.9       96     0.000     0.000     0.000     0.000      107        0       42       25       14        3        2    16.909       72     40.0    6.770   -9.900     1.79    0.000    0.000       27        8     2051  Maize_Short_Soroca_7May_NonOptimum_85_MPI.PRM
  Tot(72)        7        5     2052    198.2    473.9   1121.8   552.00      0.0    197.6      0.6      0.0      0.0     94.8       45    246.2    189.9      100     0.000     0.000     0.000     0.000      107        0       42       25       14        3        0    16.252       73     40.0    6.507   -9.900     1.91    0.000    0.000       27        8     2052  Maize_Short_Soroca_7May_NonOptimum_85_MPI.PRM
  Tot(73)        7        5     2053    224.3    526.8   1282.7   558.00      0.0    201.5     22.8      0.0      0.0     95.4       39    270.0    212.5       97     0.000     0.000     0.000     0.000      107        0       42       25        9       10        1    16.242       69     40.1    6.506   -9.900     1.78    0.000    0.000       27        8     2053  Maize_Short_Soroca_7May_NonOptimum_85_MPI.PRM
  Tot(74)        7        5     2054    165.1    544.7   1244.2   564.00      0.0    155.6      9.5     17.3      0.0    114.6       51    245.7    194.2       80     0.000     0.000     0.000     0.000      107        0       42       25       13       17       16    13.314       55     40.0    5.327   -9.900     1.48    0.000    0.000       27        8     2054  Maize_Short_Soroca_7May_NonOptimum_85_MPI.PRM
  Tot(75)        7        5     2055    210.8    461.8   1143.4   571.00      0.0    201.7      9.1     10.7      0.0    116.7       67    264.4    203.2       98     0.000     0.000     0.000     0.000      107        0       42       25       16        1        1    17.072       74     40.1    6.840   -9.900     1.79    0.000    0.000       27        8     2055  Maize_Short_Soroca_7May_NonOptimum_85_MPI.PRM
  Tot(76)        7        5     2056     96.4    553.3   1277.0   577.00      0.0     96.4      0.0      0.0      0.0     89.3       32    217.5    173.3       81     0.000     0.000     0.000     0.000      107        0       42       25        7       21       14    12.833       53     40.1    5.143   -9.900     1.68    0.000    0.000       27        8     2056  Maize_Short_Soroca_7May_NonOptimum_85_MPI.PRM
  Tot(77)        7        5     2057    178.4    567.5   1263.0   583.00      0.0    162.2     16.2      0.0      0.0     92.4       37    241.8    187.7       81     0.000     0.000     0.000     0.000      107        0       42       25       10       10       12    13.556       58     39.7    5.375   -9.900     1.61    0.000    0.000       27        8     2057  Maize_Short_Soroca_7May_NonOptimum_85_MPI.PRM
  Tot(78)        7        5     2058    346.6    422.2   1129.7   590.00      0.0    299.2     47.4     36.6      0.0    100.7       64    251.6    193.3      100     0.000     0.000     0.000     0.000      107        0       42       25       18        4        0    17.404       75     40.2    6.995   -9.900     1.99    0.000    0.000       27        8     2058  Maize_Short_Soroca_7May_NonOptimum_85_MPI.PRM
  Tot(79)        7        5     2059    223.8    527.4   1262.6   597.00      0.0    207.1     16.7     23.0      0.0    116.1       60    283.7    220.4       88     0.000     0.000     0.000     0.000      107        0       42       25       13        3        7    16.475       68     40.0    6.582   -9.900     1.65    0.000    0.000       27        8     2059  Maize_Short_Soroca_7May_NonOptimum_85_MPI.PRM
  Tot(80)        7        5     2060    103.4    536.6   1204.3   604.00      0.0    103.4      0.0      0.0      0.0     87.4       37    233.8    183.5       83     0.000     0.000     0.000     0.000      107        0       42       25       12       13       12    13.385       57     40.0    5.360   -9.900     1.67    0.000    0.000       27        8     2060  Maize_Short_Soroca_7May_NonOptimum_85_MPI.PRM
  Tot(81)        7        5     2061    218.9    431.9   1048.4   611.00      0.0    211.7      7.2     15.4      0.0    117.4       76    248.7    189.8      100     0.000     0.000     0.000     0.000      107        0       42       25       21        1        0    16.589       75     40.0    6.641   -9.900     1.81    0.000    0.000       27        8     2061  Maize_Short_Soroca_7May_NonOptimum_85_MPI.PRM
  Tot(82)        7        5     2062    154.2    516.3   1247.3   618.00      0.0    152.0      2.2      0.6      0.0     95.0       43    264.6    207.3       93     0.000     0.000     0.000     0.000      107        0       42       25        7        5        5    16.635       68     40.0    6.662   -9.900     1.85    0.000    0.000       27        8     2062  Maize_Short_Soroca_7May_NonOptimum_85_MPI.PRM
  Tot(83)        7        5     2063    203.9    513.0   1260.1   625.00      0.0    195.3      8.6      9.6      0.0    132.9       60    259.8    202.8       91     0.000     0.000     0.000     0.000      107        0       42       25        9       10        6    16.330       67     40.0    6.537   -9.900     1.66    0.000    0.000       27        8     2063  Maize_Short_Soroca_7May_NonOptimum_85_MPI.PRM
  Tot(84)        7        5     2064    221.4    485.4   1327.0   632.00      0.0    212.1      9.3     10.0      0.0    118.3       60    270.9    210.4       96     0.000     0.000     0.000     0.000      107        0       42       25        7        3        2    17.884       73     40.1    7.176   -9.900     1.84    0.000    0.000       27        8     2064  Maize_Short_Soroca_7May_NonOptimum_85_MPI.PRM
  Tot(85)        7        5     2065    160.6    477.0   1182.1   639.00      0.0    158.4      2.2      0.5      0.0    101.7       52    253.3    195.5       96     0.000     0.000     0.000     0.000      107        0       42       25       11        3        3    16.824       71     40.0    6.733   -9.900     1.90    0.000    0.000       27        8     2065  Maize_Short_Soroca_7May_NonOptimum_85_MPI.PRM
  Tot(86)        7        5     2066    187.4    627.5   1419.4   647.00      0.0    183.4      4.0      0.0      0.0    102.4       36    266.7    209.1       82     0.000     0.000     0.000     0.000      107        0       42       25        6       13       11    14.106       57     39.7    5.602   -9.900     1.52    0.000    0.000       27        8     2066  Maize_Short_Soroca_7May_NonOptimum_85_MPI.PRM
  Tot(87)        7        5     2067    194.4    503.3   1193.7   654.00      0.0    191.5      2.9      0.0      0.0     87.4       37    255.7    199.6      100     0.000     0.000     0.000     0.000      107        0       42       25       12        6        0    17.001       73     40.1    6.814   -9.900     1.99    0.000    0.000       27        8     2067  Maize_Short_Soroca_7May_NonOptimum_85_MPI.PRM
  Tot(88)        7        5     2068    213.4    523.5   1301.9   662.00      0.0    211.3      2.1      1.0      0.0    138.4       66    271.2    209.3       90     0.000     0.000     0.000     0.000      107        0       42       25        7        7        6    16.101       67     40.0    6.444   -9.900     1.57    0.000    0.000       27        8     2068  Maize_Short_Soroca_7May_NonOptimum_85_MPI.PRM
  Tot(89)        7        5     2069    294.1    470.7   1261.5   669.00      0.0    267.9     26.2      0.0      0.0     92.4       45    255.2    199.4      100     0.000     0.000     0.000     0.000      107        0       42       25        8        5        0    17.427       74     40.0    6.978   -9.900     2.01    0.000    0.000       27        8     2069  Maize_Short_Soroca_7May_NonOptimum_85_MPI.PRM
  Tot(90)        7        5     2070    173.6    506.8   1204.2   677.00      0.0    168.9      4.7      8.2      0.0    107.3       56    266.2    206.2       90     0.000     0.000     0.000     0.000      107        0       42       25       15        5        7    16.080       67     40.1    6.446   -9.900     1.73    0.000    0.000       27        8     2070  Maize_Short_Soroca_7May_NonOptimum_85_MPI.PRM
  Tot(91)        7        5     2071    173.6    532.7   1356.0   685.00      0.0    164.8      8.8     16.0      0.0    110.0       48    254.7    197.4       88     0.000     0.000     0.000     0.000      107        0       42       25        7        6        8    15.485       64     40.1    6.204   -9.900     1.70    0.000    0.000       27        8     2071  Maize_Short_Soroca_7May_NonOptimum_85_MPI.PRM
  Tot(92)        7        5     2072    135.7    592.1   1316.5   693.00      0.0    135.0      0.7      0.0      0.0    118.6       45    214.8    169.8       74     0.000     0.000     0.000     0.000      107        0       42       25        9       22       20    11.482       47     39.5    4.540   -9.900     1.36    0.000    0.000       27        8     2072  Maize_Short_Soroca_7May_NonOptimum_85_MPI.PRM
  Tot(93)        7        5     2073    244.2    421.4   1142.3   701.00      0.0    221.8     22.4     17.4      0.0    107.5       65    234.2    180.5      100     0.000     0.000     0.000     0.000      107        0       42       25       11        2        0    17.339       75     40.1    6.951   -9.900     2.03    0.000    0.000       27        8     2073  Maize_Short_Soroca_7May_NonOptimum_85_MPI.PRM
  Tot(94)        7        5     2074    263.6    428.0   1158.1   709.00      0.0    257.1      6.5      7.5      0.0    115.1       60    221.2    171.5      100     0.000     0.000     0.000     0.000      107        0       42       25       13        1        0    17.361       75     40.0    6.947   -9.900     2.07    0.000    0.000       27        8     2074  Maize_Short_Soroca_7May_NonOptimum_85_MPI.PRM
  Tot(95)        7        5     2075    156.8    514.8   1298.8   717.00      0.0    151.3      5.5     13.1      0.0    110.5       57    245.3    191.3       84     0.000     0.000     0.000     0.000      107        0       42       25        9        3       13    14.715       60     39.8    5.858   -9.900     1.65    0.000    0.000       27        8     2075  Maize_Short_Soroca_7May_NonOptimum_85_MPI.PRM
  Tot(96)        7        5     2076    150.7    540.3   1361.2   725.00      0.0    150.2      0.5      0.0      0.0    114.8       50    238.0    185.0       82     0.000     0.000     0.000     0.000      107        0       42       25       12       14       12    14.167       58     40.2    5.697   -9.900     1.61    0.000    0.000       27        8     2076  Maize_Short_Soroca_7May_NonOptimum_85_MPI.PRM
  Tot(97)        7        5     2077    162.4    516.1   1369.8   733.00      0.0    160.0      2.4      3.2      0.0     88.6       38    259.7    203.2       96     0.000     0.000     0.000     0.000      107        0       42       25        5       11        3    16.942       69     40.4    6.839   -9.900     1.96    0.000    0.000       27        8     2077  Maize_Short_Soroca_7May_NonOptimum_85_MPI.PRM
  Tot(98)        7        5     2078    252.3    497.2   1351.2   742.00      0.0    236.8     15.5      6.6      0.0     98.1       46    267.6    207.9      100     0.000     0.000     0.000     0.000      107        0       42       25        6        2        0    17.956       74     40.0    7.182   -9.900     1.96    0.000    0.000       27        8     2078  Maize_Short_Soroca_7May_NonOptimum_85_MPI.PRM
  Tot(99)        7        5     2079    184.1    490.5   1154.0   750.00      0.0    165.0     19.1      0.0      0.0    101.0       46    250.8    194.8       99     0.000     0.000     0.000     0.000      107        0       42       25       14        7        1    17.033       73     40.2    6.847   -9.900     1.95    0.000    0.000       27        8     2079  Maize_Short_Soroca_7May_NonOptimum_85_MPI.PRM
 Tot(100)        7        5     2080    130.9    511.1   1306.4   758.00      0.0    130.3      0.6      0.0      0.0     93.6       44    246.2    192.3       89     0.000     0.000     0.000     0.000      107        0       42       25        9       11        8    15.647       65     40.3    6.311   -9.900     1.86    0.000    0.000       27        8     2080  Maize_Short_Soroca_7May_NonOptimum_85_MPI.PRM
 Tot(101)        7        5     2081    167.7    483.2   1259.2   767.00      0.0    163.8      3.9      8.7      0.0    104.4       52    249.1    193.7       94     0.000     0.000     0.000     0.000      107        0       42       25        9        7        5    16.300       69     40.1    6.542   -9.900     1.85    0.000    0.000       27        8     2081  Maize_Short_Soroca_7May_NonOptimum_85_MPI.PRM
 Tot(102)        7        5     2082    137.4    600.6   1413.8   775.00      0.0    133.9      3.5      0.2      0.0    112.0       45    242.6    190.6       80     0.000     0.000     0.000     0.000      107        0       42       25        8        8       19    12.604       52     39.3    4.953   -9.900     1.40    0.000    0.000       27        8     2082  Maize_Short_Soroca_7May_NonOptimum_85_MPI.PRM
 Tot(103)        7        5     2083    144.5    553.2   1420.4   784.00      0.0    142.2      2.3      2.5      0.0    133.6       59    230.1    178.7       79     0.000     0.000     0.000     0.000      107        0       42       25        6        9       17    13.721       56     39.5    5.425   -9.900     1.49    0.000    0.000       27        8     2083  Maize_Short_Soroca_7May_NonOptimum_85_MPI.PRM
 Tot(104)        7        5     2084    329.8    475.1   1375.1   792.00      0.0    315.9     13.9     10.8      0.0    119.6       53    232.5    178.3      100     0.000     0.000     0.000     0.000      107        0       42       25        4        2        0    17.707       74     40.0    7.084   -9.900     2.01    0.000    0.000       27        8     2084  Maize_Short_Soroca_7May_NonOptimum_85_MPI.PRM
 Tot(105)        7        5     2085    112.5    591.0   1373.4   801.00      0.0    112.0      0.5      0.0      0.0     94.7       37    239.5    188.6       80     0.000     0.000     0.000     0.000      107        0       42       25        6        8       16    13.366       55     39.4    5.272   -9.900     1.58    0.000    0.000       27        8     2085  Maize_Short_Soroca_7May_NonOptimum_85_MPI.PRM
 Tot(106)        7        5     2086    274.0    525.8   1329.2   810.00      0.0    260.3     13.7     12.0      0.0    128.3       62    276.0    213.4       94     0.000     0.000     0.000     0.000      107        0       42       25        6       13        4    16.718       69     40.8    6.813   -9.900     1.68    0.000    0.000       27        8     2086  Maize_Short_Soroca_7May_NonOptimum_85_MPI.PRM
 Tot(107)        7        5     2087    235.0    499.9   1263.8   818.00      0.0    222.6     12.4     23.2      0.0    137.6       67    256.4    199.3       94     0.000     0.000     0.000     0.000      107        0       42       25       11        7        4    16.474       70     40.3    6.647   -9.900     1.69    0.000    0.000       27        8     2087  Maize_Short_Soroca_7May_NonOptimum_85_MPI.PRM
 Tot(108)        7        5     2088    152.2    553.2   1371.4   827.00      0.0    132.6     19.6     17.6      0.0     99.2       38    226.2    178.0       85     0.000     0.000     0.000     0.000      107        0       42       25        3       13       12    13.474       56     40.2    5.410   -9.900     1.66    0.000    0.000       27        8     2088  Maize_Short_Soroca_7May_NonOptimum_85_MPI.PRM
 Tot(109)        7        5     2089    351.1    466.6   1270.7   836.00      0.0    302.3     48.8     48.6      0.0    121.5       69    260.8    199.9      100     0.000     0.000     0.000     0.000      107        0       42       25        9        1        0    17.435       75     40.1    6.985   -9.900     1.83    0.000    0.000       27        8     2089  Maize_Short_Soroca_7May_NonOptimum_85_MPI.PRM
 Tot(110)        7        5     2090    104.1    562.8   1282.8   845.00      0.0    104.0      0.1      0.0      0.0    116.5       45    201.4    160.1       79     0.000     0.000     0.000     0.000      102        0       42       25       14       18       18    10.784       45     39.1    4.213   -9.900     1.35    0.000    0.000       27        8     2090  Maize_Short_Soroca_7May_NonOptimum_85_MPI.PRM
 Tot(111)        7        5     2091    210.5    546.3   1398.3   854.00      0.0    202.5      8.0      0.0      0.0     90.1       36    262.1    202.5       95     0.000     0.000     0.000     0.000      107        0       42       25        4        6        3    16.288       69     40.0    6.520   -9.900     1.85    0.000    0.000       27        8     2091  Maize_Short_Soroca_7May_NonOptimum_85_MPI.PRM
 Tot(112)        7        5     2092    182.2    646.0   1525.9   863.00      0.0    177.9      4.3     14.2      0.0    116.8       45    268.9    210.3       80     0.000     0.000     0.000     0.000      107        0       42       25        2        7       16    13.498       56     39.3    5.304   -9.900     1.38    0.000    0.000       27        8     2092  Maize_Short_Soroca_7May_NonOptimum_85_MPI.PRM
 Tot(113)        7        5     2093    159.0    539.2   1415.4   872.00      0.0    156.0      3.0      0.0      0.0     75.2       31    267.4    206.2       98     0.000     0.000     0.000     0.000      107        0       42       25        2        7        1    17.033       71     40.1    6.834   -9.900     1.99    0.000    0.000       27        8     2093  Maize_Short_Soroca_7May_NonOptimum_85_MPI.PRM
 Tot(114)        7        5     2094    294.1    458.0   1273.6   881.00      0.0    261.4     32.7     32.1      0.0    133.3       69    236.5    184.6       98     0.000     0.000     0.000     0.000      107        0       42       25        9        6        1    17.122       73     40.3    6.899   -9.900     1.87    0.000    0.000       27        8     2094  Maize_Short_Soroca_7May_NonOptimum_85_MPI.PRM
 Tot(115)        7        5     2095    160.6    584.9   1448.2   890.00      0.0    157.4      3.2      0.0      0.0     98.2       33    239.5    189.7       90     0.000     0.000     0.000     0.000      107        0       42       25        4       27        6    13.899       58     40.8    5.673   -9.900     1.68    0.000    0.000       27        8     2095  Maize_Short_Soroca_7May_NonOptimum_85_MPI.PRM
 Tot(116)        7        5     2096    151.7    666.4   1610.1   899.00      0.0    134.7     17.0      1.2      0.0     87.5       27    265.4    210.4       84     0.000     0.000     0.000     0.000      107        0       42       25        1       18       11    13.683       57     39.7    5.432   -9.900     1.54    0.000    0.000       27        8     2096  Maize_Short_Soroca_7May_NonOptimum_85_MPI.PRM
 Tot(117)        7        5     2097    274.6    488.0   1352.2   908.00      0.0    259.9     14.7      8.7      0.0    122.9       57    246.7    190.8      100     0.000     0.000     0.000     0.000      107        0       42       25        7       10        0    17.257       74     40.5    6.996   -9.900     1.89    0.000    0.000       27        8     2097  Maize_Short_Soroca_7May_NonOptimum_85_MPI.PRM
 Tot(118)        7        5     2098    204.4    487.4   1280.2   917.00      0.0    196.4      8.0     11.6      0.0    116.6       58    251.2    194.4       99     0.000     0.000     0.000     0.000      107        0       42       25        7        4        0    17.185       74     40.1    6.898   -9.900     1.88    0.000    0.000       27        8     2098  Maize_Short_Soroca_7May_NonOptimum_85_MPI.PRM
 Tot(119)        7        5     2099    207.5    525.2   1402.1   927.00      0.0    200.7      6.8     17.4      0.0    126.9       66    260.4    203.2       90     0.000     0.000     0.000     0.000      107        0       42       25        6        8        8    15.021       64     40.3    6.060   -9.900     1.56    0.000    0.000       27        8     2099  Maize_Short_Soroca_7May_NonOptimum_85_MPI.PRM
