AquaCrop 7.0 (August 2022) - Output created on (date) : 24-11-2022   at (time) : 10:28:07

    RunNr     Day1   Month1    Year1     Rain      ETo       GD     CO2      Irri   Infilt   Runoff    Drain   Upflow        E     E/Ex       Tr      TrW   Tr/Trx    SaltIn   SaltOut    SaltUp  SaltProf     Cycle   SaltStr  FertStr  WeedStr  TempStr   ExpStr   StoStr  BioMass  Brelative   HI    Y(dry)  Y(fresh)    WPet      Bin     Bout     DayN   MonthN    YearN
                                           mm       mm  degC.day    ppm        mm       mm       mm       mm       mm       mm        %       mm       mm        %    ton/ha    ton/ha    ton/ha    ton/ha      days       %        %        %        %        %        %    ton/ha        %       %    ton/ha   ton/ha    kg/m3   ton/ha   ton/ha
   Tot(1)        7        5     1981    330.3    462.9   1198.4   340.11      0.0    283.1     47.2     56.3      0.0    109.4       56    275.1    213.5      100     0.000     0.000     0.000     0.000      107        0       42       25       13        1        0    16.085       75     40.0    6.434   -9.900     1.67    0.000    0.000       27        8     1981  Maize_Short_Soroca_7May_NonOptimum_85_MOHC.PRM
   Tot(2)        7        5     1982    276.4    461.1   1144.9   341.22      0.0    241.0     35.4     37.5      0.0     91.0       42    247.8    190.3      100     0.000     0.000     0.000     0.000      107        0       42       25       15        2        0    15.482       74     40.0    6.193   -9.900     1.83    0.000    0.000       27        8     1982  Maize_Short_Soroca_7May_NonOptimum_85_MOHC.PRM
   Tot(3)        7        5     1983    225.7    446.3   1210.8   342.84      0.0    220.5      5.2      1.0      0.0     89.5       45    244.5    189.7      100     0.000     0.000     0.000     0.000      107        0       42       25        9        2        0    15.815       74     40.0    6.329   -9.900     1.90    0.000    0.000       27        8     1983  Maize_Short_Soroca_7May_NonOptimum_85_MOHC.PRM
   Tot(4)        7        5     1984    347.7    420.8   1026.2   344.40      0.0    328.6     19.1     25.4      0.0    144.0       85    231.4    179.7      100     0.000     0.000     0.000     0.000      107        0       42       25       20        0        0    14.678       75     40.0    5.871   -9.900     1.56    0.000    0.000       27        8     1984  Maize_Short_Soroca_7May_NonOptimum_85_MOHC.PRM
   Tot(5)        7        5     1985    364.9    454.7   1143.8   345.87      0.0    324.5     40.4     56.7      0.0    131.4       68    253.5    193.4      100     0.000     0.000     0.000     0.000      107        0       42       25       15        0        0    15.415       75     40.0    6.166   -9.900     1.60    0.000    0.000       27        8     1985  Maize_Short_Soroca_7May_NonOptimum_85_MOHC.PRM
   Tot(6)        7        5     1986    164.7    525.3   1219.4   347.19      0.0    164.3      0.4      0.0      0.0     97.0       40    259.0    202.5       92     0.000     0.000     0.000     0.000      107        0       42       25       12        8        5    13.939       67     40.0    5.581   -9.900     1.57    0.000    0.000       27        8     1986  Maize_Short_Soroca_7May_NonOptimum_85_MOHC.PRM
   Tot(7)        7        5     1987    273.7    465.1   1100.2   348.98      0.0    263.6     10.1     12.9      0.0    131.5       71    274.3    212.0      100     0.000     0.000     0.000     0.000      107        0       42       25       19        6        0    15.354       74     40.4    6.206   -9.900     1.53    0.000    0.000       27        8     1987  Maize_Short_Soroca_7May_NonOptimum_85_MOHC.PRM
   Tot(8)        7        5     1988    304.7    440.0   1217.4   351.45      0.0    290.1     14.6     30.8      0.0    131.0       80    283.6    221.4      100     0.000     0.000     0.000     0.000      107        0       42       25       10        1        0    16.707       75     40.0    6.687   -9.900     1.61    0.000    0.000       27        8     1988  Maize_Short_Soroca_7May_NonOptimum_85_MOHC.PRM
   Tot(9)        7        5     1989    282.2    464.6   1130.1   352.89      0.0    262.4     19.8     25.4      0.0    101.1       53    275.0    211.4      100     0.000     0.000     0.000     0.000      107        0       42       25       15        2        0    16.037       75     40.1    6.428   -9.900     1.71    0.000    0.000       27        8     1989  Maize_Short_Soroca_7May_NonOptimum_85_MOHC.PRM
  Tot(10)        7        5     1990    185.9    477.8   1101.1   354.16      0.0    184.2      1.7      2.5      0.0    113.8       58    266.9    206.5       95     0.000     0.000     0.000     0.000      107        0       42       25       18        3        4    15.302       70     40.0    6.126   -9.900     1.61    0.000    0.000       27        8     1990  Maize_Short_Soroca_7May_NonOptimum_85_MOHC.PRM
  Tot(11)        7        5     1991    456.1    412.7   1129.9   355.48      0.0    403.6     52.5     46.9      0.0    128.5       85    271.1    210.0      100     0.000     0.000     0.000     0.000      107        0       42       25       20        0        0    17.036       75     40.0    6.815   -9.900     1.71    0.000    0.000       27        8     1991  Maize_Short_Soroca_7May_NonOptimum_85_MOHC.PRM
  Tot(12)        7        5     1992    184.4    507.5   1204.4   356.27      0.0    182.6      1.8      4.3      0.0    130.3       69    268.1    207.9       83     0.000     0.000     0.000     0.000      107        0       42       25       16        5       12    13.721       61     39.7    5.450   -9.900     1.37    0.000    0.000       27        8     1992  Maize_Short_Soroca_7May_NonOptimum_85_MOHC.PRM
  Tot(13)        7        5     1993    225.5    480.7   1127.5   356.95      0.0    219.8      5.7      9.9      0.0    124.3       62    266.5    206.0       99     0.000     0.000     0.000     0.000      107        0       42       25       14        1        1    15.385       75     40.0    6.157   -9.900     1.58    0.000    0.000       27        8     1993  Maize_Short_Soroca_7May_NonOptimum_85_MOHC.PRM
  Tot(14)        7        5     1994    261.0    521.2   1199.0   358.63      0.0    230.3     30.7     13.8      0.0    119.5       54    248.1    193.8       83     0.000     0.000     0.000     0.000      107        0       42       25       13        7       12    12.542       57     39.6    4.962   -9.900     1.35    0.000    0.000       27        8     1994  Maize_Short_Soroca_7May_NonOptimum_85_MOHC.PRM
  Tot(15)        7        5     1995    305.1    494.6   1256.9   360.62      0.0    274.9     30.2     13.8      0.0    116.1       57    305.4    235.8      100     0.000     0.000     0.000     0.000      107        0       42       25        8        3        0    17.166       75     40.1    6.883   -9.900     1.63    0.000    0.000       27        8     1995  Maize_Short_Soroca_7May_NonOptimum_85_MOHC.PRM
  Tot(16)        7        5     1996    285.8    501.1   1244.3   362.37      0.0    267.2     18.6      8.4      0.0     98.7       42    272.6    211.3      100     0.000     0.000     0.000     0.000      107        0       42       25       11        3        0    16.012       74     40.0    6.406   -9.900     1.73    0.000    0.000       27        8     1996  Maize_Short_Soroca_7May_NonOptimum_85_MOHC.PRM
  Tot(17)        7        5     1997    299.6    455.8   1162.2   363.47      0.0    285.4     14.2      0.0      0.0    100.3       49    256.7    198.8      100     0.000     0.000     0.000     0.000      107        0       42       25       14        2        0    16.593       75     40.0    6.637   -9.900     1.86    0.000    0.000       27        8     1997  Maize_Short_Soroca_7May_NonOptimum_85_MOHC.PRM
  Tot(18)        7        5     1998    308.7    445.2   1198.7   366.50      0.0    287.4     21.3      4.9      0.0    123.3       70    271.9    209.6      100     0.000     0.000     0.000     0.000      107        0       42       25       17        1        0    16.304       75     40.0    6.522   -9.900     1.65    0.000    0.000       27        8     1998  Maize_Short_Soroca_7May_NonOptimum_85_MOHC.PRM
  Tot(19)        7        5     1999    155.2    512.9   1310.0   368.14      0.0    155.2      0.0      0.0      0.0     95.6       41    266.2    209.2       90     0.000     0.000     0.000     0.000      107        0       42       25       10       13        7    14.714       63     40.4    5.950   -9.900     1.64    0.000    0.000       27        8     1999  Maize_Short_Soroca_7May_NonOptimum_85_MOHC.PRM
  Tot(20)        7        5     2000    240.2    521.6   1223.8   369.41      0.0    230.6      9.6      0.0      0.0     90.6       37    285.6    222.0      100     0.000     0.000     0.000     0.000      107        0       42       25       13        5        0    15.911       73     40.0    6.367   -9.900     1.69    0.000    0.000       27        8     2000  Maize_Short_Soroca_7May_NonOptimum_85_MOHC.PRM
  Tot(21)        7        5     2001    255.6    491.7   1222.5   371.07      0.0    247.3      8.3     18.7      0.0    121.2       66    307.8    236.8       97     0.000     0.000     0.000     0.000      107        0       42       25       16        1        3    16.698       73     40.0    6.676   -9.900     1.56    0.000    0.000       27        8     2001  Maize_Short_Soroca_7May_NonOptimum_85_MOHC.PRM
  Tot(22)        7        5     2002    365.4    509.4   1309.6   373.16      0.0    331.0     34.4      0.0      0.0    127.4       58    304.0    236.2       99     0.000     0.000     0.000     0.000      107        0       42       25       10       16        1    16.622       72     40.8    6.790   -9.900     1.57    0.000    0.000       27        8     2002  Maize_Short_Soroca_7May_NonOptimum_85_MOHC.PRM
  Tot(23)        7        5     2003    329.8    556.2   1316.9   375.80      0.0    274.8     55.0      3.2      0.0     87.3       30    282.5    219.4      100     0.000     0.000     0.000     0.000      107        0       42       25        7        9        0    16.158       71     40.0    6.463   -9.900     1.75    0.000    0.000       27        8     2003  Maize_Short_Soroca_7May_NonOptimum_85_MOHC.PRM
  Tot(24)        7        5     2004    239.4    487.9   1103.3   377.49      0.0    217.8     21.6      0.0      0.0     72.2       31    266.1    210.2      100     0.000     0.000     0.000     0.000      107        0       42       25       19       14        0    15.790       71     40.2    6.347   -9.900     1.88    0.000    0.000       27        8     2004  Maize_Short_Soroca_7May_NonOptimum_85_MOHC.PRM
  Tot(25)        7        5     2005    262.5    469.1   1193.2   379.80      0.0    243.3     19.2     22.7      0.0    108.8       56    282.0    217.7      100     0.000     0.000     0.000     0.000      107        0       42       25       11        4        0    16.961       74     40.1    6.802   -9.900     1.74    0.000    0.000       27        8     2005  Maize_Short_Soroca_7May_NonOptimum_85_MOHC.PRM
  Tot(26)        7        5     2006    315.6    495.5   1200.9   381.90      0.0    301.7     13.9     21.8      0.0    141.7       77    304.6    237.1       96     0.000     0.000     0.000     0.000      107        0       42       25       15        5        3    16.305       71     40.3    6.565   -9.900     1.47    0.000    0.000       27        8     2006  Maize_Short_Soroca_7May_NonOptimum_85_MOHC.PRM
  Tot(27)        7        5     2007    152.4    612.6   1444.4   383.77      0.0    152.1      0.3      0.0      0.0    125.1       36    232.9    186.0       83     0.000     0.000     0.000     0.000      107        0       42       25        3       24       12    11.493       49     40.4    4.644   -9.900     1.30    0.000    0.000       27        8     2007  Maize_Short_Soroca_7May_NonOptimum_85_MOHC.PRM
  Tot(28)        7        5     2008    341.8    530.8   1250.9   385.59      0.0    280.9     60.9      0.0      0.0    111.5       51    324.8    251.6       99     0.000     0.000     0.000     0.000      107        0       42       25        8       14        0    16.962       72     40.6    6.889   -9.900     1.58    0.000    0.000       27        8     2008  Maize_Short_Soroca_7May_NonOptimum_85_MOHC.PRM
  Tot(29)        7        5     2009    220.9    551.9   1276.6   387.37      0.0    219.1      1.8      1.4      0.0    136.6       60    298.5    232.8       89     0.000     0.000     0.000     0.000      107        0       42       25       11        4       10    14.959       64     39.9    5.964   -9.900     1.37    0.000    0.000       27        8     2009  Maize_Short_Soroca_7May_NonOptimum_85_MOHC.PRM
  Tot(30)        7        5     2010    341.4    489.0   1373.7   389.85      0.0    312.2     29.2     48.1      0.0    130.7       71    315.5    242.4       99     0.000     0.000     0.000     0.000      107        0       42       25        8        0        0    17.689       75     40.0    7.076   -9.900     1.59    0.000    0.000       27        8     2010  Maize_Short_Soroca_7May_NonOptimum_85_MOHC.PRM
  Tot(31)        7        5     2011    187.9    543.3   1287.2   391.63      0.0    185.0      2.9      1.0      0.0     95.4       38    289.1    225.3       96     0.000     0.000     0.000     0.000      107        0       42       25        8        5        3    15.927       70     40.1    6.380   -9.900     1.66    0.000    0.000       27        8     2011  Maize_Short_Soroca_7May_NonOptimum_85_MOHC.PRM
  Tot(32)        7        5     2012    144.1    600.6   1390.6   393.82      0.0    143.9      0.2      0.0      0.0    126.5       41    224.5    180.3       78     0.000     0.000     0.000     0.000      107        0       42       25        8       27       16    10.463       45     40.3    4.212   -9.900     1.20    0.000    0.000       27        8     2012  Maize_Short_Soroca_7May_NonOptimum_85_MOHC.PRM
  Tot(33)        7        5     2013    224.9    523.6   1339.0   396.48      0.0    216.4      8.5     10.5      0.0    145.5       69    271.1    210.1       85     0.000     0.000     0.000     0.000      107        0       42       25        6        4       11    14.795       62     39.5    5.848   -9.900     1.40    0.000    0.000       27        8     2013  Maize_Short_Soroca_7May_NonOptimum_85_MOHC.PRM
  Tot(34)        7        5     2014    310.9    505.5   1289.2   398.55      0.0    284.3     26.6     17.9      0.0    125.3       62    311.0    240.4      100     0.000     0.000     0.000     0.000      107        0       42       25        9        5        0    17.066       74     40.1    6.845   -9.900     1.57    0.000    0.000       27        8     2014  Maize_Short_Soroca_7May_NonOptimum_85_MOHC.PRM
  Tot(35)        7        5     2015     53.8    613.9   1324.9   402.00      0.0     53.8      0.0      0.2      0.0     81.0       23    188.9    152.1       77     0.000     0.000     0.000     0.000       98        0       42       25        8       27       19     8.997       38     35.0    3.149   -9.900     1.17    0.000    0.000       27        8     2015  Maize_Short_Soroca_7May_NonOptimum_85_MOHC.PRM
  Tot(36)        7        5     2016    260.0    524.9   1288.5   404.00      0.0    257.7      2.3      0.0      0.0    146.2       78    314.1    240.7       91     0.000     0.000     0.000     0.000      107        0       42       25       12        3        7    15.832       67     40.1    6.342   -9.900     1.38    0.000    0.000       27        8     2016  Maize_Short_Soroca_7May_NonOptimum_85_MOHC.PRM
  Tot(37)        7        5     2017    198.7    557.0   1274.9   407.00      0.0    197.7      1.0      0.3      0.0    125.5       55    289.0    226.6       86     0.000     0.000     0.000     0.000      107        0       42       25       10        8       10    14.847       63     40.0    5.934   -9.900     1.43    0.000    0.000       27        8     2017  Maize_Short_Soroca_7May_NonOptimum_85_MOHC.PRM
  Tot(38)        7        5     2018    243.9    523.5   1389.5   410.00      0.0    231.6     12.3      0.0      0.0     92.6       38    294.8    227.0      100     0.000     0.000     0.000     0.000      107        0       42       25        7        5        0    17.130       73     40.0    6.854   -9.900     1.77    0.000    0.000       27        8     2018  Maize_Short_Soroca_7May_NonOptimum_85_MOHC.PRM
  Tot(39)        7        5     2019    283.0    528.5   1353.3   413.00      0.0    260.1     22.9     36.0      0.0    154.4       77    289.9    227.1       87     0.000     0.000     0.000     0.000      107        0       42       25        4        5       10    15.384       65     39.9    6.138   -9.900     1.38    0.000    0.000       27        8     2019  Maize_Short_Soroca_7May_NonOptimum_85_MOHC.PRM
  Tot(40)        7        5     2020    190.1    597.3   1424.7   416.00      0.0    183.7      6.4     10.1      0.0    118.9       55    282.5    219.9       77     0.000     0.000     0.000     0.000      107        0       42       25        6        6       17    13.282       55     38.8    5.152   -9.900     1.28    0.000    0.000       27        8     2020  Maize_Short_Soroca_7May_NonOptimum_85_MOHC.PRM
  Tot(41)        7        5     2021    101.0    692.0   1471.4   419.00      0.0     98.2      2.8      5.5      0.0    114.1       27    184.3    148.2       73     0.000     0.000     0.000     0.000       92        0       42       25        8       31       20     7.584       31     29.2    2.216   -9.900     0.77    0.000    0.000       27        8     2021  Maize_Short_Soroca_7May_NonOptimum_85_MOHC.PRM
  Tot(42)        7        5     2022     85.8    599.6   1360.5   422.00      0.0     84.6      1.2      4.3      0.0     93.5       33    210.5    166.5       70     0.000     0.000     0.000     0.000      103        0       42       25       13       22       23     9.903       42     38.5    3.814   -9.900     1.26    0.000    0.000       27        8     2022  Maize_Short_Soroca_7May_NonOptimum_85_MOHC.PRM
  Tot(43)        7        5     2023    115.1    642.3   1429.4   425.00      0.0    115.0      0.1      0.0      0.0    125.7       38    206.9    163.1       73     0.000     0.000     0.000     0.000       97        0       42       25        8       20       21     9.330       39     33.4    3.120   -9.900     0.95    0.000    0.000       27        8     2023  Maize_Short_Soroca_7May_NonOptimum_85_MOHC.PRM
  Tot(44)        7        5     2024     64.0    619.7   1453.0   428.00      0.0     63.8      0.2      0.4      0.0     93.5       27    179.2    142.5       74     0.000     0.000     0.000     0.000       92        0       42       25        9       27       20     8.407       34     28.8    2.419   -9.900     0.90    0.000    0.000       27        8     2024  Maize_Short_Soroca_7May_NonOptimum_85_MOHC.PRM
  Tot(45)        7        5     2025    230.7    550.9   1376.1   431.00      0.0    218.0     12.7     13.6      0.0    136.1       67    267.2    207.1       78     0.000     0.000     0.000     0.000      107        0       42       25        7        9       13    13.579       57     36.5    4.961   -9.900     1.23    0.000    0.000       27        8     2025  Maize_Short_Soroca_7May_NonOptimum_85_MOHC.PRM
  Tot(46)        7        5     2026    126.1    645.3   1468.9   435.00      0.0    124.9      1.2      0.0      0.0    116.6       36    226.7    180.7       73     0.000     0.000     0.000     0.000       99        0       42       25        5       20       21    10.065       41     35.0    3.526   -9.900     1.05    0.000    0.000       27        8     2026  Maize_Short_Soroca_7May_NonOptimum_85_MOHC.PRM
  Tot(47)        7        5     2027    233.8    515.6   1379.8   438.00      0.0    228.9      4.9     13.7      0.0    128.9       64    292.4    226.0       91     0.000     0.000     0.000     0.000      107        0       42       25        6        5        7    16.188       67     40.1    6.488   -9.900     1.54    0.000    0.000       27        8     2027  Maize_Short_Soroca_7May_NonOptimum_85_MOHC.PRM
  Tot(48)        7        5     2028    133.3    627.7   1508.1   442.00      0.0    130.6      2.7      0.0      0.0    107.2       41    247.5    193.6       75     0.000     0.000     0.000     0.000      102        0       42       25        8        7       21    11.225       46     37.4    4.194   -9.900     1.18    0.000    0.000       27        8     2028  Maize_Short_Soroca_7May_NonOptimum_85_MOHC.PRM
  Tot(49)        7        5     2029    183.5    589.6   1475.4   445.00      0.0    178.9      4.6      8.2      0.0    147.7       59    244.6    191.0       77     0.000     0.000     0.000     0.000      105        0       42       25        4       12       20    12.070       49     39.5    4.762   -9.900     1.22    0.000    0.000       27        8     2029  Maize_Short_Soroca_7May_NonOptimum_85_MOHC.PRM
  Tot(50)        7        5     2030    285.0    535.5   1352.2   449.00      0.0    255.9     29.1     48.7      0.0    139.7       74    290.6    224.3       83     0.000     0.000     0.000     0.000      107        0       42       25       10        2       12    15.453       63     39.6    6.117   -9.900     1.42    0.000    0.000       27        8     2030  Maize_Short_Soroca_7May_NonOptimum_85_MOHC.PRM
  Tot(51)        7        5     2031    147.8    648.1   1530.7   452.00      0.0    145.0      2.8      0.0      0.0    125.8       42    239.1    190.8       70     0.000     0.000     0.000     0.000      107        0       42       25        5       28       21    10.711       43     39.9    4.275   -9.900     1.17    0.000    0.000       27        8     2031  Maize_Short_Soroca_7May_NonOptimum_85_MOHC.PRM
  Tot(52)        7        5     2032    199.5    541.2   1431.1   456.00      0.0    194.9      4.6      4.1      0.0    127.6       53    263.1    206.8       86     0.000     0.000     0.000     0.000      107        0       42       25        5       22        8    14.501       59     40.6    5.894   -9.900     1.51    0.000    0.000       27        8     2032  Maize_Short_Soroca_7May_NonOptimum_85_MOHC.PRM
  Tot(53)        7        5     2033    214.8    599.4   1501.5   460.00      0.0    208.3      6.5     12.8      0.0    157.7       62    262.1    207.8       75     0.000     0.000     0.000     0.000      107        0       42       25        5       24       18    12.549       51     40.0    5.017   -9.900     1.20    0.000    0.000       27        8     2033  Maize_Short_Soroca_7May_NonOptimum_85_MOHC.PRM
  Tot(54)        7        5     2034     92.6    726.1   1615.9   464.00      0.0     87.8      4.8     13.1      0.0    101.7       24    175.5    140.6       68     0.000     0.000     0.000     0.000       85        0       42       25        8       29       22     6.994       28      7.4    0.519   -9.900     0.19    0.000    0.000       27        8     2034  Maize_Short_Soroca_7May_NonOptimum_85_MOHC.PRM
  Tot(55)        7        5     2035     87.0    651.2   1439.5   468.00      0.0     86.1      0.9      0.4      0.0     94.7       29    197.2    155.5       71     0.000     0.000     0.000     0.000       92        0       42       25       11       21       21     8.827       36     28.6    2.525   -9.900     0.88    0.000    0.000       27        8     2035  Maize_Short_Soroca_7May_NonOptimum_85_MOHC.PRM
  Tot(56)        7        5     2036    177.2    640.0   1523.5   472.00      0.0    156.6     20.6     19.8      0.0    112.2       43    249.9    195.9       71     0.000     0.000     0.000     0.000      104        0       42       25        7       18       24    10.976       44     25.2    2.766   -9.900     0.76    0.000    0.000       27        8     2036  Maize_Short_Soroca_7May_NonOptimum_85_MOHC.PRM
  Tot(57)        7        5     2037    176.3    522.5   1273.2   476.00      0.0    160.2     16.1     33.9      0.0    121.1       59    227.2    177.9       75     0.000     0.000     0.000     0.000      107        0       42       25       15       12       19    12.196       50     39.6    4.828   -9.900     1.39    0.000    0.000       27        8     2037  Maize_Short_Soroca_7May_NonOptimum_85_MOHC.PRM
  Tot(58)        7        5     2038    311.2    522.3   1407.9   481.00      0.0    259.3     51.9     60.8      0.0    106.7       68    313.3    241.5       86     0.000     0.000     0.000     0.000      107        0       42       25       12        1       10    15.847       65     39.6    6.275   -9.900     1.49    0.000    0.000       27        8     2038  Maize_Short_Soroca_7May_NonOptimum_85_MOHC.PRM
  Tot(59)        7        5     2039    101.8    693.8   1580.6   485.00      0.0    101.6      0.2      0.0      0.0    132.5       33    174.3    139.2       72     0.000     0.000     0.000     0.000       88        0       42       25        9       27       21     7.757       31     24.6    1.910   -9.900     0.63    0.000    0.000       27        8     2039  Maize_Short_Soroca_7May_NonOptimum_85_MOHC.PRM
  Tot(60)        7        5     2040     57.8    752.5   1656.3   489.00      0.0     57.8      0.0      0.0      0.0     96.8       18    152.7    125.2       75     0.000     0.000     0.000     0.000       90        0       42       25        1       39       18     5.877       23     25.1    1.477   -9.900     0.60    0.000    0.000       27        8     2040  Maize_Short_Soroca_7May_NonOptimum_85_MOHC.PRM
  Tot(61)        7        5     2041     62.4    770.4   1643.0   494.00      0.0     62.4      0.0      0.0      0.0     97.6       21    172.0    138.0       67     0.000     0.000     0.000     0.000       89        0       42       25        5       31       22     7.307       29     25.4    1.859   -9.900     0.70    0.000    0.000       27        8     2041  Maize_Short_Soroca_7May_NonOptimum_85_MOHC.PRM
  Tot(62)        7        5     2042    209.2    633.2   1491.0   499.00      0.0    181.0     28.2     45.9      0.0    137.6       43    218.1    173.0       75     0.000     0.000     0.000     0.000       98        0       42       25        5       22       20    10.232       41     34.4    3.522   -9.900     1.00    0.000    0.000       27        8     2042  Maize_Short_Soroca_7May_NonOptimum_85_MOHC.PRM
  Tot(63)        7        5     2043     27.6    813.6   1668.9   504.00      0.0     27.6      0.0      0.0      0.0     62.7       10    146.1    119.8       74     0.000     0.000     0.000     0.000       84        0       42       25        7       39       19     5.412       22     21.0    1.137   -9.900     0.56    0.000    0.000       27        8     2043  Maize_Short_Soroca_7May_NonOptimum_85_MOHC.PRM
  Tot(64)        7        5     2044    127.6    630.7   1552.0   508.00      0.0    127.5      0.1      0.6      0.0    132.3       42    210.7    166.2       74     0.000     0.000     0.000     0.000       96        0       42       25        5       19       20     9.853       39     32.6    3.210   -9.900     0.94    0.000    0.000       27        8     2044  Maize_Short_Soroca_7May_NonOptimum_85_MOHC.PRM
  Tot(65)        7        5     2045    266.2    564.6   1395.7   513.00      0.0    243.3     22.9     46.0      0.0    129.3       62    247.1    192.1       75     0.000     0.000     0.000     0.000      107        0       42       25        7        6       16    12.520       51     39.0    4.878   -9.900     1.30    0.000    0.000       27        8     2045  Maize_Short_Soroca_7May_NonOptimum_85_MOHC.PRM
  Tot(66)        7        5     2046    142.4    654.0   1606.8   519.00      0.0    141.7      0.7      2.2      0.0    126.3       42    229.3    180.5       73     0.000     0.000     0.000     0.000       96        0       42       25        4       15       21    10.175       40     32.4    3.298   -9.900     0.94    0.000    0.000       27        8     2046  Maize_Short_Soroca_7May_NonOptimum_85_MOHC.PRM
  Tot(67)        7        5     2047    160.0    760.5   1743.1   524.00      0.0    147.2     12.8     24.4      0.0    140.3       28    165.7    134.0       71     0.000     0.000     0.000     0.000       83        0       42       25        2       34       21     6.367       25     12.2    0.777   -9.900     0.27    0.000    0.000       27        8     2047  Maize_Short_Soroca_7May_NonOptimum_85_MOHC.PRM
  Tot(68)        7        5     2048     77.7    627.2   1611.7   529.00      0.0     77.4      0.3      0.0      0.0    104.6       33    184.9    146.2       71     0.000     0.000     0.000     0.000       92        0       42       25        4       23       21     9.102       36     28.5    2.592   -9.900     0.92    0.000    0.000       27        8     2048  Maize_Short_Soroca_7May_NonOptimum_85_MOHC.PRM
  Tot(69)        7        5     2049     52.0    755.6   1609.1   535.00      0.0     52.0      0.0      0.0      0.0     79.9       18    173.8    138.6       65     0.000     0.000     0.000     0.000       88        0       42       25        4       27       22     7.245       29     17.9    1.299   -9.900     0.52    0.000    0.000       27        8     2049  Maize_Short_Soroca_7May_NonOptimum_85_MOHC.PRM
  Tot(70)        7        5     2050    126.3    686.2   1676.9   541.00      0.0    124.6      1.7      0.0      0.0    110.0       32    237.5    187.1       75     0.000     0.000     0.000     0.000      101        0       42       25        3       19       20    11.084       44     37.1    4.118   -9.900     1.19    0.000    0.000       27        8     2050  Maize_Short_Soroca_7May_NonOptimum_85_MOHC.PRM
  Tot(71)        7        5     2051    144.4    634.5   1487.3   546.00      0.0    138.8      5.6     14.7      0.0    106.9       42    237.7    185.5       71     0.000     0.000     0.000     0.000       98        0       42       25        8       10       21    10.650       43     19.9    2.117   -9.900     0.62    0.000    0.000       27        8     2051  Maize_Short_Soroca_7May_NonOptimum_85_MOHC.PRM
  Tot(72)        7        5     2052    125.5    650.0   1489.7   552.00      0.0    119.9      5.6      9.5      0.0    133.3       40    184.6    146.3       69     0.000     0.000     0.000     0.000       89        0       42       25        8       25       21     8.285       33     25.8    2.140   -9.900     0.69    0.000    0.000       27        8     2052  Maize_Short_Soroca_7May_NonOptimum_85_MOHC.PRM
  Tot(73)        7        5     2053    107.3    639.1   1588.6   558.00      0.0    107.3      0.0      0.0      0.0    105.5       36    224.8    176.1       72     0.000     0.000     0.000     0.000      100        0       42       25        3       15       21    11.039       44     35.8    3.953   -9.900     1.21    0.000    0.000       27        8     2053  Maize_Short_Soroca_7May_NonOptimum_85_MOHC.PRM
  Tot(74)        7        5     2054    166.9    639.7   1614.4   564.00      0.0    154.2     12.7     29.1      0.0    119.9       43    226.6    177.3       71     0.000     0.000     0.000     0.000       97        0       42       25        3       14       22    10.303       41     32.8    3.380   -9.900     0.98    0.000    0.000       27        8     2054  Maize_Short_Soroca_7May_NonOptimum_85_MOHC.PRM
  Tot(75)        7        5     2055     37.7    719.1   1664.8   571.00      0.0     37.7      0.0      0.0      0.0     71.5       16    165.5    132.6       70     0.000     0.000     0.000     0.000       86        0       42       25        4       31       21     6.910       27     22.7    1.568   -9.900     0.67    0.000    0.000       27        8     2055  Maize_Short_Soroca_7May_NonOptimum_85_MOHC.PRM
  Tot(76)        7        5     2056    118.5    597.0   1465.1   577.00      0.0    117.3      1.2      0.0      0.0    105.7       43    233.9    182.2       74     0.000     0.000     0.000     0.000      103        0       42       25        5        6       20    11.758       47     38.6    4.535   -9.900     1.34    0.000    0.000       27        8     2056  Maize_Short_Soroca_7May_NonOptimum_85_MOHC.PRM
  Tot(77)        7        5     2057    250.3    538.2   1464.9   583.00      0.0    234.4     15.9     34.3      0.0    136.8       75    284.0    218.8       83     0.000     0.000     0.000     0.000      107        0       42       25        6        1       12    15.456       63     39.5    6.109   -9.900     1.45    0.000    0.000       27        8     2057  Maize_Short_Soroca_7May_NonOptimum_85_MOHC.PRM
  Tot(78)        7        5     2058    128.7    754.9   1709.6   590.00      0.0    125.7      3.0      5.0      0.0    135.6       35    199.2    158.7       65     0.000     0.000     0.000     0.000       92        0       42       25        3       24       24     8.368       33     27.9    2.335   -9.900     0.70    0.000    0.000       27        8     2058  Maize_Short_Soroca_7May_NonOptimum_85_MOHC.PRM
  Tot(79)        7        5     2059    171.7    619.4   1564.5   597.00      0.0    171.2      0.5      0.0      0.0    139.4       54    248.8    194.5       73     0.000     0.000     0.000     0.000      107        0       42       25        4       17       18    12.706       50     39.5    5.014   -9.900     1.29    0.000    0.000       27        8     2059  Maize_Short_Soroca_7May_NonOptimum_85_MOHC.PRM
  Tot(80)        7        5     2060     90.0    796.1   1818.6   604.00      0.0     90.0      0.0      0.0      0.0    113.2       21    181.4    147.8       73     0.000     0.000     0.000     0.000       89        0       42       25        1       34       20     7.036       28     13.4    0.945   -9.900     0.32    0.000    0.000       27        8     2060  Maize_Short_Soroca_7May_NonOptimum_85_MOHC.PRM
  Tot(81)        7        5     2061     83.3    737.8   1638.9   611.00      0.0     72.2     11.1     18.1      0.0     87.3       21    172.5    138.0       67     0.000     0.000     0.000     0.000       87        0       42       25        8       29       22     7.385       29     23.3    1.723   -9.900     0.67    0.000    0.000       27        8     2061  Maize_Short_Soroca_7May_NonOptimum_85_MOHC.PRM
  Tot(82)        7        5     2062    114.2    766.7   1785.6   618.00      0.0    114.2      0.0      0.0      0.0    130.1       32    198.6    157.2       67     0.000     0.000     0.000     0.000       91        0       42       25        1       22       23     8.523       34     27.0    2.302   -9.900     0.72    0.000    0.000       27        8     2062  Maize_Short_Soroca_7May_NonOptimum_85_MOHC.PRM
  Tot(83)        7        5     2063    152.0    665.8   1715.7   625.00      0.0    142.0     10.0     19.1      0.0    116.1       40    230.5    179.9       71     0.000     0.000     0.000     0.000      100        0       42       25        2       12       22    11.025       44     35.5    3.911   -9.900     1.13    0.000    0.000       27        8     2063  Maize_Short_Soroca_7May_NonOptimum_85_MOHC.PRM
  Tot(84)        7        5     2064    104.0    660.9   1766.5   632.00      0.0    104.0      0.0      0.0      0.0     99.7       29    215.5    170.5       77     0.000     0.000     0.000     0.000       98        0       42       25        1       19       20    10.190       40     34.6    3.528   -9.900     1.15    0.000    0.000       27        8     2064  Maize_Short_Soroca_7May_NonOptimum_85_MOHC.PRM
  Tot(85)        7        5     2065     74.5    669.5   1709.3   639.00      0.0     74.5      0.0      0.0      0.0    100.3       25    182.7    146.9       77     0.000     0.000     0.000     0.000       95        0       42       25        1       32       18     8.773       35     32.3    2.834   -9.900     1.01    0.000    0.000       27        8     2065  Maize_Short_Soroca_7May_NonOptimum_85_MOHC.PRM
  Tot(86)        7        5     2066    143.0    676.0   1651.8   647.00      0.0    139.0      4.0      0.5      0.0    115.4       32    204.0    161.6       73     0.000     0.000     0.000     0.000      107        0       42       25        2       22       29     9.448       38     31.6    2.984   -9.900     0.93    0.000    0.000       27        8     2066  Maize_Short_Soroca_7May_NonOptimum_85_MOHC.PRM
  Tot(87)        7        5     2067    134.1    772.1   1830.9   654.00      0.0    129.2      4.9      0.0      0.0    124.9       29    222.1    175.7       72     0.000     0.000     0.000     0.000       96        0       42       25        0       21       21     9.295       37     32.2    2.990   -9.900     0.87    0.000    0.000       27        8     2067  Maize_Short_Soroca_7May_NonOptimum_85_MOHC.PRM
  Tot(88)        7        5     2068    188.3    588.8   1604.9   662.00      0.0    186.0      2.3      0.0      0.0    114.0       50    293.1    227.4       84     0.000     0.000     0.000     0.000      107        0       42       25        2        7       11    15.876       63     39.7    6.305   -9.900     1.55    0.000    0.000       27        8     2068  Maize_Short_Soroca_7May_NonOptimum_85_MOHC.PRM
  Tot(89)        7        5     2069    185.3    654.6   1725.4   669.00      0.0    171.1     14.2      7.2      0.0     82.5       33    303.1    235.2       80     0.000     0.000     0.000     0.000      107        0       42       25        1        3       14    14.708       58     39.1    5.748   -9.900     1.49    0.000    0.000       27        8     2069  Maize_Short_Soroca_7May_NonOptimum_85_MOHC.PRM
  Tot(90)        7        5     2070    150.3    674.6   1671.9   677.00      0.0    143.5      6.8     17.2      0.0     98.1       36    254.3    198.0       72     0.000     0.000     0.000     0.000      105        0       42       25        3        5       21    12.329       49     38.0    4.691   -9.900     1.33    0.000    0.000       27        8     2070  Maize_Short_Soroca_7May_NonOptimum_85_MOHC.PRM
  Tot(91)        7        5     2071    150.5    695.0   1691.2   685.00      0.0    143.5      7.0     16.9      0.0    117.8       38    228.6    179.0       72     0.000     0.000     0.000     0.000       96        0       42       25        5       15       22    10.143       40     10.5    1.069   -9.900     0.31    0.000    0.000       27        8     2071  Maize_Short_Soroca_7May_NonOptimum_85_MOHC.PRM
  Tot(92)        7        5     2072    172.4    683.9   1739.8   693.00      0.0    165.3      7.1      6.8      0.0    133.2       47    248.0    193.2       73     0.000     0.000     0.000     0.000      101        0       42       25        3        7       21    11.394       45     36.5    4.154   -9.900     1.09    0.000    0.000       27        8     2072  Maize_Short_Soroca_7May_NonOptimum_85_MOHC.PRM
  Tot(93)        7        5     2073    137.1    660.6   1644.2   701.00      0.0    131.5      5.6     10.1      0.0    113.8       37    230.2    180.7       75     0.000     0.000     0.000     0.000      102        0       42       25        3       16       21    11.343       45     38.0    4.311   -9.900     1.26    0.000    0.000       27        8     2073  Maize_Short_Soroca_7May_NonOptimum_85_MOHC.PRM
  Tot(94)        7        5     2074    141.9    721.7   1712.2   709.00      0.0    132.4      9.5      0.0      0.0    109.5       30    243.1    193.4       76     0.000     0.000     0.000     0.000      101        0       42       25        3       22       20    10.449       42     36.9    3.855   -9.900     1.10    0.000    0.000       27        8     2074  Maize_Short_Soroca_7May_NonOptimum_85_MOHC.PRM
  Tot(95)        7        5     2075     93.6    765.9   1830.6   717.00      0.0     93.4      0.2      0.3      0.0    118.0       24    181.8    147.0       74     0.000     0.000     0.000     0.000       92        0       42       25        2       33       20     7.718       31     23.0    1.772   -9.900     0.60    0.000    0.000       27        8     2075  Maize_Short_Soroca_7May_NonOptimum_85_MOHC.PRM
  Tot(96)        7        5     2076    104.5    703.3   1746.2   725.00      0.0    103.8      0.7      0.2      0.0    121.2       33    191.2    151.8       72     0.000     0.000     0.000     0.000       90        0       42       25        7       28       21     8.361       33     14.0    1.169   -9.900     0.38    0.000    0.000       27        8     2076  Maize_Short_Soroca_7May_NonOptimum_85_MOHC.PRM
  Tot(97)        7        5     2077    109.8    674.1   1672.6   733.00      0.0    108.2      1.6      0.0      0.0     77.4       23    212.5    167.2       72     0.000     0.000     0.000     0.000       98        0       42       25        1       16       21    10.112       41     34.1    3.445   -9.900     1.22    0.000    0.000       27        8     2077  Maize_Short_Soroca_7May_NonOptimum_85_MOHC.PRM
  Tot(98)        7        5     2078    137.0    617.0   1642.2   742.00      0.0    136.9      0.1      0.0      0.0    109.3       49    253.4    197.8       75     0.000     0.000     0.000     0.000      107        0       42       25        6       12       18    13.351       54     38.8    5.186   -9.900     1.43    0.000    0.000       27        8     2078  Maize_Short_Soroca_7May_NonOptimum_85_MOHC.PRM
  Tot(99)        7        5     2079    146.9    699.4   1763.0   750.00      0.0    141.3      5.6     10.0      0.0    146.6       42    187.8    148.5       68     0.000     0.000     0.000     0.000       88        0       42       25        3       23       22     8.044       32     22.8    1.838   -9.900     0.57    0.000    0.000       27        8     2079  Maize_Short_Soroca_7May_NonOptimum_85_MOHC.PRM
 Tot(100)        7        5     2080    177.7    742.5   1823.4   758.00      0.0    173.8      3.9      0.0      0.0    156.7       42    224.1    179.3       69     0.000     0.000     0.000     0.000      107        0       42       25        2       31       22     9.413       38      8.1    0.760   -9.900     0.20    0.000    0.000       27        8     2080  Maize_Short_Soroca_7May_NonOptimum_85_MOHC.PRM
 Tot(101)        7        5     2081    110.3    735.0   1864.5   767.00      0.0    105.0      5.3      0.0      0.0    109.2       29    217.8    172.1       70     0.000     0.000     0.000     0.000      100        0       42       25        0       18       21    10.243       41     35.8    3.666   -9.900     1.13    0.000    0.000       27        8     2081  Maize_Short_Soroca_7May_NonOptimum_85_MOHC.PRM
 Tot(102)        7        5     2082    126.7    757.4   1888.0   775.00      0.0    112.1     14.6     39.3      0.0     79.7       21    212.0    168.0       70     0.000     0.000     0.000     0.000       96        0       42       25        1       22       22     9.194       37     31.8    2.926   -9.900     1.01    0.000    0.000       27        8     2082  Maize_Short_Soroca_7May_NonOptimum_85_MOHC.PRM
 Tot(103)        7        5     2083    143.8    731.6   1754.1   784.00      0.0    132.9     10.9     17.5      0.0    134.8       38    196.3    154.4       68     0.000     0.000     0.000     0.000       93        0       42       25        5       18       22     9.135       37     29.1    2.662   -9.900     0.81    0.000    0.000       27        8     2083  Maize_Short_Soroca_7May_NonOptimum_85_MOHC.PRM
 Tot(104)        7        5     2084    192.0    628.3   1685.4   792.00      0.0    151.6     40.4     87.6      0.0     88.8       30    186.4    147.3       73     0.000     0.000     0.000     0.000       93        0       42       25        7       24       21     9.028       37     29.6    2.671   -9.900     0.98    0.000    0.000       27        8     2084  Maize_Short_Soroca_7May_NonOptimum_85_MOHC.PRM
 Tot(105)        7        5     2085    149.4    725.4   1853.8   801.00      0.0    136.3     13.1     24.6      0.0    137.3       34    178.9    142.8       72     0.000     0.000     0.000     0.000       90        0       42       25        1       29       20     8.052       33     26.9    2.164   -9.900     0.72    0.000    0.000       27        8     2085  Maize_Short_Soroca_7May_NonOptimum_85_MOHC.PRM
 Tot(106)        7        5     2086    102.2    712.1   1826.6   810.00      0.0    101.9      0.3      0.0      0.0    101.1       29    222.9    176.2       69     0.000     0.000     0.000     0.000      107        0       42       25        1       21       22    10.614       43     13.0    1.382   -9.900     0.43    0.000    0.000       27        8     2086  Maize_Short_Soroca_7May_NonOptimum_85_MOHC.PRM
 Tot(107)        7        5     2087     17.7    880.0   1953.4   818.00      0.0     17.7      0.0      0.0      0.0     62.8        9    145.4    120.5       77     0.000     0.000     0.000     0.000       90        0       42       25        0       41       17     5.439       22     17.9    0.973   -9.900     0.48    0.000    0.000       27        8     2087  Maize_Short_Soroca_7May_NonOptimum_85_MOHC.PRM
 Tot(108)        7        5     2088     52.8    855.5   1893.0   827.00      0.0     49.8      3.0      5.0      0.0     83.6       14    148.6    121.5       73     0.000     0.000     0.000     0.000       83        0       42       25        1       38       19     5.550       23     13.8    0.768   -9.900     0.33    0.000    0.000       27        8     2088  Maize_Short_Soroca_7May_NonOptimum_85_MOHC.PRM
 Tot(109)        7        5     2089     91.4    807.5   1878.0   836.00      0.0     90.7      0.7      1.9      0.0    112.4       23    175.1    140.5       69     0.000     0.000     0.000     0.000       87        0       42       25        2       30       21     7.180       29      0.2    0.017   -9.900     0.01    0.000    0.000       27        8     2089  Maize_Short_Soroca_7May_NonOptimum_85_MOHC.PRM
 Tot(110)        7        5     2090    225.9    741.8   1813.9   845.00      0.0    187.6     38.3     65.6      0.0    117.7       36    225.6    176.3       70     0.000     0.000     0.000     0.000       97        0       42       25        1       13       22    10.123       41     32.8    3.323   -9.900     0.97    0.000    0.000       27        8     2090  Maize_Short_Soroca_7May_NonOptimum_85_MOHC.PRM
 Tot(111)        7        5     2091     61.8    869.2   1918.8   854.00      0.0     61.8      0.0      0.0      0.0     96.8       17    156.3    126.7       70     0.000     0.000     0.000     0.000       82        0       42       25        1       36       21     5.727       23     11.5    0.658   -9.900     0.26    0.000    0.000       27        8     2091  Maize_Short_Soroca_7May_NonOptimum_85_MOHC.PRM
 Tot(112)        7        5     2092     34.8    871.3   1862.9   863.00      0.0     33.5      1.3      2.5      0.0     71.6       12    150.5    122.7       72     0.000     0.000     0.000     0.000       84        0       42       25        2       37       20     5.754       24     12.2    0.704   -9.900     0.32    0.000    0.000       27        8     2092  Maize_Short_Soroca_7May_NonOptimum_85_MOHC.PRM
 Tot(113)        7        5     2093    104.1    824.6   1910.9   872.00      0.0    102.0      2.1      0.0      0.0     99.7       22    221.0    176.8       72     0.000     0.000     0.000     0.000       98        0       42       25        1       26       21     9.134       38      5.9    0.535   -9.900     0.17    0.000    0.000       27        8     2093  Maize_Short_Soroca_7May_NonOptimum_85_MOHC.PRM
 Tot(114)        7        5     2094     66.7    798.6   1898.3   881.00      0.0     66.7      0.0      0.0      0.0    104.3       20    160.5    130.1       75     0.000     0.000     0.000     0.000       88        0       42       25        1       35       19     6.744       28     25.4    1.712   -9.900     0.65    0.000    0.000       27        8     2094  Maize_Short_Soroca_7May_NonOptimum_85_MOHC.PRM
 Tot(115)        7        5     2095     56.6    844.4   1898.6   890.00      0.0     56.5      0.1      0.0      0.0     90.4       17    161.4    130.3       69     0.000     0.000     0.000     0.000       85        0       42       25        1       33       21     6.259       26      5.7    0.355   -9.900     0.14    0.000    0.000       27        8     2095  Maize_Short_Soroca_7May_NonOptimum_85_MOHC.PRM
 Tot(116)        7        5     2096    222.6    696.8   1813.3   899.00      0.0    171.0     51.6     58.5      0.0    132.0       38    194.0    153.4       73     0.000     0.000     0.000     0.000       94        0       42       25        3       22       21     9.298       38     30.8    2.862   -9.900     0.88    0.000    0.000       27        8     2096  Maize_Short_Soroca_7May_NonOptimum_85_MOHC.PRM
 Tot(117)        7        5     2097     95.0    775.9   1859.0   908.00      0.0     92.8      2.2      2.5      0.0    124.1       24    158.7    128.8       73     0.000     0.000     0.000     0.000       87        0       42       25        1       36       20     6.315       26     24.0    1.514   -9.900     0.54    0.000    0.000       27        8     2097  Maize_Short_Soroca_7May_NonOptimum_85_MOHC.PRM
 Tot(118)        7        5     2098     91.8    767.5   1856.0   917.00      0.0     90.4      1.4      0.0      0.0    105.0       27    199.7    157.8       68     0.000     0.000     0.000     0.000       93        0       42       25        2       20       22     8.495       35     16.5    1.405   -9.900     0.46    0.000    0.000       27        8     2098  Maize_Short_Soroca_7May_NonOptimum_85_MOHC.PRM
 Tot(119)        7        5     2099    222.3    601.0   1707.1   927.00      0.0    192.6     29.7      2.0      0.0     96.3       44    305.4    236.6       90     0.000     0.000     0.000     0.000      107        0       42       25        2        9        6    16.167       68     40.1    6.482   -9.900     1.61    0.000    0.000       27        8     2099  Maize_Short_Soroca_7May_NonOptimum_85_MOHC.PRM
