AquaCrop 7.0 (August 2022) - Output created on (date) : 24-11-2022   at (time) : 10:11:03

    RunNr     Day1   Month1    Year1     Rain      ETo       GD     CO2      Irri   Infilt   Runoff    Drain   Upflow        E     E/Ex       Tr      TrW   Tr/Trx    SaltIn   SaltOut    SaltUp  SaltProf     Cycle   SaltStr  FertStr  WeedStr  TempStr   ExpStr   StoStr  BioMass  Brelative   HI    Y(dry)  Y(fresh)    WPet      Bin     Bout     DayN   MonthN    YearN
                                           mm       mm  degC.day    ppm        mm       mm       mm       mm       mm       mm        %       mm       mm        %    ton/ha    ton/ha    ton/ha    ton/ha      days       %        %        %        %        %        %    ton/ha        %       %    ton/ha   ton/ha    kg/m3   ton/ha   ton/ha
   Tot(1)        7        5     1981    178.8    503.2   1241.2   340.11      0.0    170.0      8.8     19.7      0.0     88.2       42    267.5    265.9       89     0.000     0.000     0.000     0.000      107        0        0        0       11        5        8    18.291       83     39.7    7.262   -9.900     2.04    0.000    0.000       27        8     1981  Maize_short_Cahul_7May_Optimum_85_NCC.PRM
   Tot(2)        7        5     1982    226.7    493.1   1253.0   341.22      0.0    226.0      0.7      0.0      0.0    101.4       45    280.6    279.1      100     0.000     0.000     0.000     0.000      107        0        0        0        8        3        0    21.083       95     40.0    8.440   -9.900     2.21    0.000    0.000       27        8     1982  Maize_short_Cahul_7May_Optimum_85_NCC.PRM
   Tot(3)        7        5     1983    290.7    494.4   1282.6   342.84      0.0    264.2     26.5     26.7      0.0    101.9       47    287.3    287.1      100     0.000     0.000     0.000     0.000      107        0        0        0        6        3        0    21.239       96     40.1    8.514   -9.900     2.19    0.000    0.000       27        8     1983  Maize_short_Cahul_7May_Optimum_85_NCC.PRM
   Tot(4)        7        5     1984    204.3    469.3   1125.8   344.40      0.0    202.8      1.5      3.1      0.0    133.4       69    263.3    265.5       97     0.000     0.000     0.000     0.000      107        0        0        0       13        2        2    19.791       94     40.1    7.931   -9.900     2.00    0.000    0.000       27        8     1984  Maize_short_Cahul_7May_Optimum_85_NCC.PRM
   Tot(5)        7        5     1985    289.7    484.3   1225.0   345.87      0.0    263.2     26.5     42.7      0.0    114.2       55    279.7    277.6      100     0.000     0.000     0.000     0.000      107        0        0        0       10        1        0    20.626       97     40.0    8.250   -9.900     2.09    0.000    0.000       27        8     1985  Maize_short_Cahul_7May_Optimum_85_NCC.PRM
   Tot(6)        7        5     1986    152.5    543.3   1305.4   347.19      0.0    151.8      0.7      0.0      0.0    106.4       45    261.7    264.2       84     0.000     0.000     0.000     0.000      107        0        0        0        5        8       11    17.511       79     39.6    6.933   -9.900     1.88    0.000    0.000       27        8     1986  Maize_short_Cahul_7May_Optimum_85_NCC.PRM
   Tot(7)        7        5     1987    241.4    495.3   1193.7   348.98      0.0    233.0      8.4      0.0      0.0     96.8       50    305.7    303.2       99     0.000     0.000     0.000     0.000      107        0        0        0       13        4        1    20.812       95     40.1    8.345   -9.900     2.07    0.000    0.000       27        8     1987  Maize_short_Cahul_7May_Optimum_85_NCC.PRM
   Tot(8)        7        5     1988    149.9    506.2   1303.3   351.45      0.0    148.7      1.2      3.3      0.0    130.7       64    236.1    239.3       80     0.000     0.000     0.000     0.000      107        0        0        0        8        8       18    15.447       68     39.2    6.055   -9.900     1.65    0.000    0.000       27        8     1988  Maize_short_Cahul_7May_Optimum_85_NCC.PRM
   Tot(9)        7        5     1989    201.9    495.5   1205.1   352.89      0.0    201.5      0.4      0.0      0.0    102.1       51    296.7    295.1       97     0.000     0.000     0.000     0.000      107        0        0        0       13        4        2    20.756       93     40.2    8.345   -9.900     2.09    0.000    0.000       27        8     1989  Maize_short_Cahul_7May_Optimum_85_NCC.PRM
  Tot(10)        7        5     1990    134.9    531.5   1218.0   354.16      0.0    134.6      0.3      0.0      0.0    122.0       53    234.0    235.4       79     0.000     0.000     0.000     0.000      107        0        0        0       13       13       17    15.179       67     39.8    6.046   -9.900     1.70    0.000    0.000       27        8     1990  Maize_short_Cahul_7May_Optimum_85_NCC.PRM
  Tot(11)        7        5     1991    385.6    438.1   1229.6   355.48      0.0    339.7     45.9     69.7      0.0    119.1       77    296.0    293.8      100     0.000     0.000     0.000     0.000      107        0        0        0       15        0        0    22.432       98     40.0    8.978   -9.900     2.16    0.000    0.000       27        8     1991  Maize_short_Cahul_7May_Optimum_85_NCC.PRM
  Tot(12)        7        5     1992    170.3    523.5   1259.8   356.27      0.0    170.0      0.3      0.0      0.0    127.8       64    262.4    264.1       81     0.000     0.000     0.000     0.000      107        0        0        0       14        6       14    17.117       75     39.2    6.705   -9.900     1.72    0.000    0.000       27        8     1992  Maize_short_Cahul_7May_Optimum_85_NCC.PRM
  Tot(13)        7        5     1993    212.3    519.6   1215.6   356.95      0.0    200.6     11.7     23.7      0.0    126.2       61    265.1    263.8       86     0.000     0.000     0.000     0.000      107        0        0        0       10        6       10    17.552       81     39.7    6.964   -9.900     1.78    0.000    0.000       27        8     1993  Maize_short_Cahul_7May_Optimum_85_NCC.PRM
  Tot(14)        7        5     1994    227.8    533.6   1328.9   358.63      0.0    212.2     15.6     35.4      0.0     99.1       42    269.6    270.9       87     0.000     0.000     0.000     0.000      107        0        0        0        8       11        9    17.628       77     39.7    6.999   -9.900     1.90    0.000    0.000       27        8     1994  Maize_short_Cahul_7May_Optimum_85_NCC.PRM
  Tot(15)        7        5     1995    166.2    526.8   1338.7   360.62      0.0    162.9      3.3      3.5      0.0    105.2       47    265.1    265.0       85     0.000     0.000     0.000     0.000      107        0        0        0        7       10       13    17.334       74     39.7    6.879   -9.900     1.86    0.000    0.000       27        8     1995  Maize_short_Cahul_7May_Optimum_85_NCC.PRM
  Tot(16)        7        5     1996    151.7    562.1   1315.4   362.37      0.0    142.1      9.6      0.0      0.0    116.4       36    182.9    183.8       79     0.000     0.000     0.000     0.000      107        0        0        0        7       26       16    10.998       49     40.3    4.431   -9.900     1.48    0.000    0.000       27        8     1996  Maize_short_Cahul_7May_Optimum_85_NCC.PRM
  Tot(17)        7        5     1997    419.7    471.7   1250.0   363.47      0.0    375.1     44.6      0.3      0.0    121.8       59    281.7    281.1      100     0.000     0.000     0.000     0.000      107        0        0        0       10        2        0    22.136       97     40.0    8.862   -9.900     2.20    0.000    0.000       27        8     1997  Maize_short_Cahul_7May_Optimum_85_NCC.PRM
  Tot(18)        7        5     1998    168.8    516.5   1294.8   366.50      0.0    167.9      0.9      2.6      0.0    120.0       61    269.0    269.2       84     0.000     0.000     0.000     0.000      107        0        0        0       12        4       13    17.668       78     39.4    6.964   -9.900     1.79    0.000    0.000       27        8     1998  Maize_short_Cahul_7May_Optimum_85_NCC.PRM
  Tot(19)        7        5     1999    300.8    546.7   1379.6   368.14      0.0    283.6     17.2      0.0      0.0    112.6       50    332.5    330.4       98     0.000     0.000     0.000     0.000      107        0        0        0        7        4        2    21.754       92     40.1    8.727   -9.900     1.96    0.000    0.000       27        8     1999  Maize_short_Cahul_7May_Optimum_85_NCC.PRM
  Tot(20)        7        5     2000     73.9    617.8   1328.9   369.41      0.0     73.9      0.0      0.0      0.0     81.9       24    209.2    211.7       77     0.000     0.000     0.000     0.000      106        0        0        0        7       24       20    12.543       55     39.6    4.962   -9.900     1.71    0.000    0.000       27        8     2000  Maize_short_Cahul_7May_Optimum_85_NCC.PRM
  Tot(21)        7        5     2001    201.1    552.7   1318.6   371.07      0.0    172.7     28.4     17.8      0.0    115.8       52    262.1    261.9       80     0.000     0.000     0.000     0.000      107        0        0        0       10        3       17    16.754       72     39.0    6.535   -9.900     1.73    0.000    0.000       27        8     2001  Maize_short_Cahul_7May_Optimum_85_NCC.PRM
  Tot(22)        7        5     2002    297.9    563.7   1394.2   373.16      0.0    259.4     38.5      0.0      0.0    114.6       42    288.9    286.7       92     0.000     0.000     0.000     0.000      107        0        0        0        5       24        4    18.851       80     40.8    7.698   -9.900     1.91    0.000    0.000       27        8     2002  Maize_short_Cahul_7May_Optimum_85_NCC.PRM
  Tot(23)        7        5     2003    102.9    602.8   1413.4   375.80      0.0    102.9      0.0      0.0      0.0    101.7       29    219.7    222.0       82     0.000     0.000     0.000     0.000      107        0        0        0        3       26       16    14.151       60     40.1    5.672   -9.900     1.76    0.000    0.000       27        8     2003  Maize_short_Cahul_7May_Optimum_85_NCC.PRM
  Tot(24)        7        5     2004    257.1    519.7   1224.3   377.49      0.0    253.2      3.9      0.0      0.0    135.8       63    301.4    299.1       95     0.000     0.000     0.000     0.000      107        0        0        0       12       13        3    20.544       89     40.4    8.295   -9.900     1.90    0.000    0.000       27        8     2004  Maize_short_Cahul_7May_Optimum_85_NCC.PRM
  Tot(25)        7        5     2005    378.7    520.8   1288.0   379.80      0.0    361.0     17.7     10.1      0.0    144.1       69    326.2    325.2      100     0.000     0.000     0.000     0.000      107        0        0        0        8        3        0    22.626       97     40.1    9.071   -9.900     1.93    0.000    0.000       27        8     2005  Maize_short_Cahul_7May_Optimum_85_NCC.PRM
  Tot(26)        7        5     2006    163.6    573.8   1322.8   381.90      0.0    155.9      7.7     15.6      0.0    122.3       46    230.5    233.3       76     0.000     0.000     0.000     0.000      107        0        0        0        7       19       18    14.128       60     39.9    5.635   -9.900     1.60    0.000    0.000       27        8     2006  Maize_short_Cahul_7May_Optimum_85_NCC.PRM
  Tot(27)        7        5     2007    116.6    680.4   1503.0   383.77      0.0    115.3      1.3      0.0      0.0    111.5       28    210.4    210.6       75     0.000     0.000     0.000     0.000      107        0        0        0        1       28       19    10.964       46     40.1    4.393   -9.900     1.36    0.000    0.000       27        8     2007  Maize_short_Cahul_7May_Optimum_85_NCC.PRM
  Tot(28)        7        5     2008    125.7    607.1   1356.8   385.59      0.0    125.7      0.0      0.0      0.0    100.0       36    250.4    250.7       77     0.000     0.000     0.000     0.000      107        0        0        0        4       20       19    14.861       62     39.6    5.888   -9.900     1.68    0.000    0.000       27        8     2008  Maize_short_Cahul_7May_Optimum_85_NCC.PRM
  Tot(29)        7        5     2009    135.6    616.1   1391.5   387.37      0.0    135.0      0.6      0.0      0.0     91.0       31    264.7    264.8       82     0.000     0.000     0.000     0.000      107        0        0        0        5       12       17    15.562       65     39.5    6.144   -9.900     1.73    0.000    0.000       27        8     2009  Maize_short_Cahul_7May_Optimum_85_NCC.PRM
  Tot(30)        7        5     2010    259.9    550.9   1434.7   389.85      0.0    241.6     18.3      0.8      0.0    128.8       57    321.2    319.6       94     0.000     0.000     0.000     0.000      107        0        0        0        7        2        5    21.119       90     39.9    8.432   -9.900     1.87    0.000    0.000       27        8     2010  Maize_short_Cahul_7May_Optimum_85_NCC.PRM
  Tot(31)        7        5     2011    181.1    568.4   1367.2   391.63      0.0    176.8      4.3      2.4      0.0    123.9       52    273.1    274.0       82     0.000     0.000     0.000     0.000      107        0        0        0        4        6       13    17.670       76     39.7    7.011   -9.900     1.77    0.000    0.000       27        8     2011  Maize_short_Cahul_7May_Optimum_85_NCC.PRM
  Tot(32)        7        5     2012    233.1    640.5   1478.9   393.82      0.0    227.4      5.7      5.3      0.0    161.6       56    262.1    261.1       75     0.000     0.000     0.000     0.000      107        0        0        0        5       18       20    14.463       60     39.6    5.722   -9.900     1.35    0.000    0.000       27        8     2012  Maize_short_Cahul_7May_Optimum_85_NCC.PRM
  Tot(33)        7        5     2013    235.4    581.7   1439.0   396.48      0.0    222.9     12.5      0.0      0.0    123.0       50    300.1    300.6       85     0.000     0.000     0.000     0.000      107        0        0        0        3        6       11    19.124       79     39.4    7.534   -9.900     1.78    0.000    0.000       27        8     2013  Maize_short_Cahul_7May_Optimum_85_NCC.PRM
  Tot(34)        7        5     2014    237.3    550.5   1373.2   398.55      0.0    233.6      3.7      5.5      0.0    144.3       67    295.7    293.8       86     0.000     0.000     0.000     0.000      107        0        0        0        5        7       10    19.257       81     39.8    7.665   -9.900     1.74    0.000    0.000       27        8     2014  Maize_short_Cahul_7May_Optimum_85_NCC.PRM
  Tot(35)        7        5     2015    139.4    626.7   1394.8   402.00      0.0    138.0      1.4      0.0      0.0     98.5       32    250.1    252.4       78     0.000     0.000     0.000     0.000      107        0        0        0        5       12       14    14.896       63     39.4    5.864   -9.900     1.68    0.000    0.000       27        8     2015  Maize_short_Cahul_7May_Optimum_85_NCC.PRM
  Tot(36)        7        5     2016    181.5    571.0   1373.9   404.00      0.0    180.8      0.7      0.3      0.0    147.1       66    254.5    254.7       74     0.000     0.000     0.000     0.000      107        0        0        0        8       11       21    15.251       64     39.3    5.991   -9.900     1.49    0.000    0.000       27        8     2016  Maize_short_Cahul_7May_Optimum_85_NCC.PRM
  Tot(37)        7        5     2017    266.4    570.6   1365.8   407.00      0.0    238.1     28.3      0.0      0.0    103.1       46    341.8    340.6       94     0.000     0.000     0.000     0.000      107        0        0        0        7        5        5    21.464       90     40.1    8.609   -9.900     1.94    0.000    0.000       27        8     2017  Maize_short_Cahul_7May_Optimum_85_NCC.PRM
  Tot(38)        7        5     2018    180.2    562.5   1480.2   410.00      0.0    173.9      6.3      1.1      0.0     97.7       37    289.9    290.5       91     0.000     0.000     0.000     0.000      107        0        0        0        3       10        6    20.287       84     40.1    8.128   -9.900     2.10    0.000    0.000       27        8     2018  Maize_short_Cahul_7May_Optimum_85_NCC.PRM
  Tot(39)        7        5     2019    187.7    591.3   1433.5   413.00      0.0    186.5      1.2      1.0      0.0    157.7       62    253.3    254.2       76     0.000     0.000     0.000     0.000      107        0        0        0        3       15       19    15.756       65     39.4    6.214   -9.900     1.51    0.000    0.000       27        8     2019  Maize_short_Cahul_7May_Optimum_85_NCC.PRM
  Tot(40)        7        5     2020    141.8    574.0   1300.6   416.00      0.0    138.2      3.6     11.0      0.0    120.7       48    232.6    233.0       75     0.000     0.000     0.000     0.000      107        0        0        0       10       13       22    14.716       62     39.0    5.740   -9.900     1.62    0.000    0.000       27        8     2020  Maize_short_Cahul_7May_Optimum_85_NCC.PRM
  Tot(41)        7        5     2021    152.5    573.5   1309.9   419.00      0.0    151.8      0.7      0.1      0.0    104.9       44    270.2    270.0       82     0.000     0.000     0.000     0.000      107        0        0        0        6        5       16    16.603       70     39.2    6.513   -9.900     1.74    0.000    0.000       27        8     2021  Maize_short_Cahul_7May_Optimum_85_NCC.PRM
  Tot(42)        7        5     2022    183.7    473.3   1056.1   422.00      0.0    176.1      7.6     23.3      0.0    121.1       72    249.0    248.8       85     0.000     0.000     0.000     0.000      107        0        0        0       19        3       11    18.201       81     39.7    7.233   -9.900     1.95    0.000    0.000       27        8     2022  Maize_short_Cahul_7May_Optimum_85_NCC.PRM
  Tot(43)        7        5     2023    188.8    493.7   1120.0   425.00      0.0    168.7     20.1     12.1      0.0    101.3       51    223.2    223.4       81     0.000     0.000     0.000     0.000      107        0        0        0       16       13       11    15.228       69     40.3    6.139   -9.900     1.89    0.000    0.000       27        8     2023  Maize_short_Cahul_7May_Optimum_85_NCC.PRM
  Tot(44)        7        5     2024     95.1    624.3   1427.6   428.00      0.0     93.7      1.4      1.9      0.0    109.4       32    198.5    198.8       74     0.000     0.000     0.000     0.000       96        0        0        0        3       21       21    11.674       48     32.5    3.793   -9.900     1.26    0.000    0.000       27        8     2024  Maize_short_Cahul_7May_Optimum_85_NCC.PRM
  Tot(45)        7        5     2025    183.6    534.7   1281.4   431.00      0.0    182.7      0.9      0.3      0.0    130.7       67    271.4    271.1       82     0.000     0.000     0.000     0.000      107        0        0        0        8        2       15    17.510       74     39.4    6.907   -9.900     1.72    0.000    0.000       27        8     2025  Maize_short_Cahul_7May_Optimum_85_NCC.PRM
  Tot(46)        7        5     2026    534.8    423.6    984.7   435.00      0.0    373.6    161.2    129.3      0.0    121.6       77    242.6    240.1      100     0.000     0.000     0.000     0.000      107        0        0        0       22        0        0    20.243       98     40.0    8.097   -9.900     2.22    0.000    0.000       27        8     2026  Maize_short_Cahul_7May_Optimum_85_NCC.PRM
  Tot(47)        7        5     2027    104.6    529.5   1163.6   438.00      0.0    102.9      1.7      6.3      0.0    107.3       48    213.0    215.8       77     0.000     0.000     0.000     0.000      107        0        0        0       16        6       19    14.933       65     39.1    5.835   -9.900     1.82    0.000    0.000       27        8     2027  Maize_short_Cahul_7May_Optimum_85_NCC.PRM
  Tot(48)        7        5     2028    187.9    596.1   1340.8   442.00      0.0    172.2     15.7     32.1      0.0    132.8       54    234.9    234.9       72     0.000     0.000     0.000     0.000      105        0        0        0        6       10       24    14.391       59     38.2    5.495   -9.900     1.50    0.000    0.000       27        8     2028  Maize_short_Cahul_7May_Optimum_85_NCC.PRM
  Tot(49)        7        5     2029     67.7    581.8   1304.3   445.00      0.0     67.7      0.0      0.7      0.0     94.7       32    188.5    188.5       74     0.000     0.000     0.000     0.000       96        0        0        0       10       20       20    11.704       49     32.8    3.836   -9.900     1.39    0.000    0.000       27        8     2029  Maize_short_Cahul_7May_Optimum_85_NCC.PRM
  Tot(50)        7        5     2030     77.5    653.6   1438.8   449.00      0.0     77.3      0.2      0.2      0.0    106.4       29    172.8    172.8       71     0.000     0.000     0.000     0.000       87        0        0        0       10       29       20     9.155       37     24.2    2.216   -9.900     0.80    0.000    0.000       27        8     2030  Maize_short_Cahul_7May_Optimum_85_NCC.PRM
  Tot(51)        7        5     2031     85.2    568.1   1240.2   452.00      0.0     77.3      7.9      9.9      0.0     91.7       33    196.0    196.0       74     0.000     0.000     0.000     0.000      100        0        0        0        9       16       20    13.055       55     36.3    4.737   -9.900     1.66    0.000    0.000       27        8     2031  Maize_short_Cahul_7May_Optimum_85_NCC.PRM
  Tot(52)        7        5     2032    151.5    601.9   1352.8   456.00      0.0    137.4     14.1     17.6      0.0    138.9       44    190.9    190.9       74     0.000     0.000     0.000     0.000       93        0        0        0       11       23       20    11.257       46     29.9    3.361   -9.900     1.03    0.000    0.000       27        8     2032  Maize_short_Cahul_7May_Optimum_85_NCC.PRM
  Tot(53)        7        5     2033     82.7    612.9   1365.1   460.00      0.0     82.7      0.0      0.0      0.0    113.2       34    180.9    180.9       74     0.000     0.000     0.000     0.000       94        0        0        0        9       24       20    11.156       46     30.8    3.432   -9.900     1.17    0.000    0.000       27        8     2033  Maize_short_Cahul_7May_Optimum_85_NCC.PRM
  Tot(54)        7        5     2034    162.0    483.4   1177.5   464.00      0.0    158.1      3.9     10.7      0.0    124.9       71    239.7    238.9       81     0.000     0.000     0.000     0.000      107        0        0        0       14        9       14    17.460       74     40.1    6.994   -9.900     1.92    0.000    0.000       27        8     2034  Maize_short_Cahul_7May_Optimum_85_NCC.PRM
  Tot(55)        7        5     2035    114.8    569.8   1282.0   468.00      0.0    112.8      2.0      4.8      0.0    113.3       46    219.7    220.4       75     0.000     0.000     0.000     0.000      103        0        0        0        9       11       20    14.521       60     38.8    5.633   -9.900     1.70    0.000    0.000       27        8     2035  Maize_short_Cahul_7May_Optimum_85_NCC.PRM
  Tot(56)        7        5     2036    185.8    483.4   1165.1   472.00      0.0    163.7     22.1      9.3      0.0     89.5       46    268.8    267.3       95     0.000     0.000     0.000     0.000      107        0        0        0       13        5        4    20.005       90     40.0    7.996   -9.900     2.23    0.000    0.000       27        8     2036  Maize_short_Cahul_7May_Optimum_85_NCC.PRM
  Tot(57)        7        5     2037    102.4    603.3   1404.5   476.00      0.0    100.5      1.9      2.4      0.0    109.1       34    202.5    203.8       75     0.000     0.000     0.000     0.000      107        0        0        0        5       19       22    12.928       52     39.6    5.122   -9.900     1.64    0.000    0.000       27        8     2037  Maize_short_Cahul_7May_Optimum_85_NCC.PRM
  Tot(58)        7        5     2038    170.4    607.7   1363.9   481.00      0.0    157.9     12.5     12.6      0.0    146.7       52    220.4    220.6       75     0.000     0.000     0.000     0.000       99        0        0        0        9       15       21    13.561       55     35.2    4.780   -9.900     1.31    0.000    0.000       27        8     2038  Maize_short_Cahul_7May_Optimum_85_NCC.PRM
  Tot(59)        7        5     2039     94.9    588.0   1320.1   485.00      0.0     94.4      0.5      0.0      0.0    114.8       38    197.9    197.9       76     0.000     0.000     0.000     0.000       98        0        0        0       11       19       20    12.676       52     34.6    4.389   -9.900     1.42    0.000    0.000       27        8     2039  Maize_short_Cahul_7May_Optimum_85_NCC.PRM
  Tot(60)        7        5     2040    168.0    570.8   1294.0   489.00      0.0    153.5     14.5     33.8      0.0    117.1       47    224.3    224.3       76     0.000     0.000     0.000     0.000      101        0        0        0        9       14       21    14.290       58     37.1    5.306   -9.900     1.57    0.000    0.000       27        8     2040  Maize_short_Cahul_7May_Optimum_85_NCC.PRM
  Tot(61)        7        5     2041    231.7    522.0   1270.2   494.00      0.0    220.2     11.5      9.9      0.0    132.1       69    293.6    292.4       89     0.000     0.000     0.000     0.000      107        0        0        0        9        0        8    21.071       87     39.8    8.386   -9.900     1.97    0.000    0.000       27        8     2041  Maize_short_Cahul_7May_Optimum_85_NCC.PRM
  Tot(62)        7        5     2042      9.1    690.9   1500.3   499.00      0.0      9.1      0.0      0.0      0.0     49.1       11    161.8    163.0       75     0.000     0.000     0.000     0.000       89        0        0        0        7       33       19     8.893       36     26.3    2.342   -9.900     1.12    0.000    0.000       27        8     2042  Maize_short_Cahul_7May_Optimum_85_NCC.PRM
  Tot(63)        7        5     2043     95.4    550.3   1391.6   504.00      0.0     93.9      1.5      2.0      0.0     72.7       30    239.0    238.3       79     0.000     0.000     0.000     0.000      107        0        0        0        4       12       16    16.856       68     39.8    6.715   -9.900     2.15    0.000    0.000       27        8     2043  Maize_short_Cahul_7May_Optimum_85_NCC.PRM
  Tot(64)        7        5     2044    112.7    543.1   1275.5   508.00      0.0    112.7      0.0      0.0      0.0    109.6       47    225.0    225.7       78     0.000     0.000     0.000     0.000      105        0        0        0        7        9       19    15.418       63     39.2    6.042   -9.900     1.81    0.000    0.000       27        8     2044  Maize_short_Cahul_7May_Optimum_85_NCC.PRM
  Tot(65)        7        5     2045    271.6    546.2   1219.6   513.00      0.0    212.0     59.6     76.6      0.0    122.7       57    225.6    225.6       76     0.000     0.000     0.000     0.000      102        0        0        0       18        8       20    14.613       60     37.9    5.541   -9.900     1.60    0.000    0.000       27        8     2045  Maize_short_Cahul_7May_Optimum_85_NCC.PRM
  Tot(66)        7        5     2046    118.9    576.7   1340.7   519.00      0.0    117.2      1.7      4.7      0.0    128.9       47    202.6    202.6       77     0.000     0.000     0.000     0.000       98        0        0        0       12       17       20    13.280       53     34.6    4.592   -9.900     1.39    0.000    0.000       27        8     2046  Maize_short_Cahul_7May_Optimum_85_NCC.PRM
  Tot(67)        7        5     2047     68.9    542.6   1277.6   524.00      0.0     68.8      0.1      0.1      0.0     87.4       37    205.8    205.8       74     0.000     0.000     0.000     0.000      107        0        0        0        9       12       22    14.766       60     39.0    5.756   -9.900     1.96    0.000    0.000       27        8     2047  Maize_short_Cahul_7May_Optimum_85_NCC.PRM
  Tot(68)        7        5     2048    182.2    598.0   1368.4   529.00      0.0    162.1     20.1     32.7      0.0    120.9       48    233.6    233.6       76     0.000     0.000     0.000     0.000      105        0        0        0        8        7       21    14.863       61     38.6    5.742   -9.900     1.62    0.000    0.000       27        8     2048  Maize_short_Cahul_7May_Optimum_85_NCC.PRM
  Tot(69)        7        5     2049    153.4    521.8   1263.0   535.00      0.0    142.6     10.8     22.5      0.0    117.7       52    221.3    221.3       80     0.000     0.000     0.000     0.000      107        0        0        0        8       10       18    16.226       66     39.7    6.441   -9.900     1.90    0.000    0.000       27        8     2049  Maize_short_Cahul_7May_Optimum_85_NCC.PRM
  Tot(70)        7        5     2050    169.3    497.7   1219.9   541.00      0.0    163.3      6.0      7.6      0.0    133.1       69    242.8    242.3       84     0.000     0.000     0.000     0.000      107        0        0        0       15        5       14    18.342       75     39.8    7.293   -9.900     1.94    0.000    0.000       27        8     2050  Maize_short_Cahul_7May_Optimum_85_NCC.PRM
  Tot(71)        7        5     2051    261.9    444.2   1139.8   546.00      0.0    255.1      6.8      1.3      0.0    115.3       65    258.3    255.6      100     0.000     0.000     0.000     0.000      107        0        0        0       11        1        0    22.863       97     40.0    9.148   -9.900     2.45    0.000    0.000       27        8     2051  Maize_short_Cahul_7May_Optimum_85_NCC.PRM
  Tot(72)        7        5     2052    138.1    606.2   1426.4   552.00      0.0    130.8      7.3     19.9      0.0    123.0       40    205.7    208.9       76     0.000     0.000     0.000     0.000       98        0        0        0        5       21       20    12.929       52     34.4    4.448   -9.900     1.36    0.000    0.000       27        8     2052  Maize_short_Cahul_7May_Optimum_85_NCC.PRM
  Tot(73)        7        5     2053    263.2    497.0   1254.3   558.00      0.0    233.9     29.3     63.2      0.0    132.2       81    260.1    259.8       83     0.000     0.000     0.000     0.000      107        0        0        0       13        3       15    18.176       74     39.4    7.159   -9.900     1.82    0.000    0.000       27        8     2053  Maize_short_Cahul_7May_Optimum_85_NCC.PRM
  Tot(74)        7        5     2054    211.2    537.1   1332.4   564.00      0.0    185.5     25.7     36.3      0.0    133.4       64    238.5    238.8       80     0.000     0.000     0.000     0.000      107        0        0        0        7        6       19    16.677       67     39.2    6.535   -9.900     1.76    0.000    0.000       27        8     2054  Maize_short_Cahul_7May_Optimum_85_NCC.PRM
  Tot(75)        7        5     2055    216.9    548.9   1276.0   571.00      0.0    202.9     14.0     21.3      0.0    139.2       68    266.5    266.3       82     0.000     0.000     0.000     0.000      107        0        0        0        6        3       15    18.567       76     39.3    7.295   -9.900     1.80    0.000    0.000       27        8     2055  Maize_short_Cahul_7May_Optimum_85_NCC.PRM
  Tot(76)        7        5     2056     65.9    696.2   1593.3   577.00      0.0     65.0      0.9      4.7      0.0     93.9       22    172.3    172.6       73     0.000     0.000     0.000     0.000       89        0        0        0        2       30       20     9.576       38     25.8    2.467   -9.900     0.94    0.000    0.000       27        8     2056  Maize_short_Cahul_7May_Optimum_85_NCC.PRM
  Tot(77)        7        5     2057    183.9    554.4   1316.5   583.00      0.0    173.4     10.5      2.3      0.0    121.1       57    272.9    272.3       83     0.000     0.000     0.000     0.000      107        0        0        0       12        4       13    19.017       77     39.4    7.497   -9.900     1.90    0.000    0.000       27        8     2057  Maize_short_Cahul_7May_Optimum_85_NCC.PRM
  Tot(78)        7        5     2058    110.7    593.4   1326.0   590.00      0.0    107.1      3.6     13.4      0.0    109.5       43    207.6    208.2       72     0.000     0.000     0.000     0.000      100        0        0        0       12       12       21    13.705       56     35.8    4.910   -9.900     1.56    0.000    0.000       27        8     2058  Maize_short_Cahul_7May_Optimum_85_NCC.PRM
  Tot(79)        7        5     2059    138.1    613.2   1426.9   597.00      0.0    129.5      8.6     20.1      0.0    125.1       42    204.5    204.5       74     0.000     0.000     0.000     0.000       98        0        0        0        8       20       21    13.002       52     34.2    4.446   -9.900     1.36    0.000    0.000       27        8     2059  Maize_short_Cahul_7May_Optimum_85_NCC.PRM
  Tot(80)        7        5     2060    147.6    488.3   1177.2   604.00      0.0    142.1      5.5      0.0      0.0     85.2       40    256.8    254.8       96     0.000     0.000     0.000     0.000      107        0        0        0       11        5        3    21.635       91     40.0    8.661   -9.900     2.53    0.000    0.000       27        8     2060  Maize_short_Cahul_7May_Optimum_85_NCC.PRM
  Tot(81)        7        5     2061    222.3    547.7   1287.6   611.00      0.0    197.7     24.6     57.4      0.0    124.5       65    241.9    243.3       73     0.000     0.000     0.000     0.000      107        0        0        0        9       10       19    16.722       68     39.3    6.567   -9.900     1.79    0.000    0.000       27        8     2061  Maize_short_Cahul_7May_Optimum_85_NCC.PRM
  Tot(82)        7        5     2062    103.5    634.7   1475.3   618.00      0.0    100.3      3.2      3.5      0.0    119.2       37    194.2    194.8       74     0.000     0.000     0.000     0.000       96        0        0        0        6       19       21    12.387       50     32.5    4.024   -9.900     1.29    0.000    0.000       27        8     2062  Maize_short_Cahul_7May_Optimum_85_NCC.PRM
  Tot(83)        7        5     2063     60.2    645.8   1483.5   625.00      0.0     59.9      0.3      0.0      0.0     90.7       25    178.1    178.1       75     0.000     0.000     0.000     0.000       93        0        0        0        5       26       19    11.124       44     30.1    3.352   -9.900     1.25    0.000    0.000       27        8     2063  Maize_short_Cahul_7May_Optimum_85_NCC.PRM
  Tot(84)        7        5     2064    102.9    619.3   1423.1   632.00      0.0    102.8      0.1      0.0      0.0    115.5       40    207.4    207.4       74     0.000     0.000     0.000     0.000       99        0        0        0        8       14       21    13.119       54     35.2    4.612   -9.900     1.46    0.000    0.000       27        8     2064  Maize_short_Cahul_7May_Optimum_85_NCC.PRM
  Tot(85)        7        5     2065    194.1    571.8   1442.0   639.00      0.0    184.4      9.7      7.4      0.0    127.7       63    274.5    274.2       80     0.000     0.000     0.000     0.000      107        0        0        0        6        3       16    18.317       73     39.0    7.145   -9.900     1.78    0.000    0.000       27        8     2065  Maize_short_Cahul_7May_Optimum_85_NCC.PRM
  Tot(86)        7        5     2066     39.8    679.6   1532.0   647.00      0.0     38.7      1.1      3.8      0.0     72.1       17    169.6    169.9       74     0.000     0.000     0.000     0.000       92        0        0        0        5       30       20    10.157       40     28.8    2.928   -9.900     1.23    0.000    0.000       27        8     2066  Maize_short_Cahul_7May_Optimum_85_NCC.PRM
  Tot(87)        7        5     2067    126.6    673.4   1498.0   654.00      0.0    118.0      8.6      5.0      0.0    124.6       36    203.7    203.7       75     0.000     0.000     0.000     0.000       95        0        0        0        7       21       20    12.100       48     31.7    3.834   -9.900     1.18    0.000    0.000       27        8     2067  Maize_short_Cahul_7May_Optimum_85_NCC.PRM
  Tot(88)        7        5     2068    109.1    598.0   1429.4   662.00      0.0    108.1      1.0      7.4      0.0    124.0       42    191.0    191.0       76     0.000     0.000     0.000     0.000       96        0        0        0        5       20       20    12.543       50     32.8    4.110   -9.900     1.31    0.000    0.000       27        8     2068  Maize_short_Cahul_7May_Optimum_85_NCC.PRM
  Tot(89)        7        5     2069    189.9    548.1   1383.4   669.00      0.0    180.2      9.7     20.2      0.0    147.7       68    235.8    235.6       79     0.000     0.000     0.000     0.000      107        0        0        0        4       10       18    17.077       69     39.5    6.752   -9.900     1.76    0.000    0.000       27        8     2069  Maize_short_Cahul_7May_Optimum_85_NCC.PRM
  Tot(90)        7        5     2070     93.2    576.2   1370.5   677.00      0.0     91.7      1.5      2.6      0.0    100.0       40    209.7    210.0       76     0.000     0.000     0.000     0.000      101        0        0        0       12       14       20    14.244       57     37.4    5.332   -9.900     1.73    0.000    0.000       27        8     2070  Maize_short_Cahul_7May_Optimum_85_NCC.PRM
  Tot(91)        7        5     2071    158.2    594.2   1503.7   685.00      0.0    148.7      9.5      5.4      0.0    109.7       44    255.5    255.4       81     0.000     0.000     0.000     0.000      107        0        0        0        4        9       17    17.054       68     39.4    6.717   -9.900     1.84    0.000    0.000       27        8     2071  Maize_short_Cahul_7May_Optimum_85_NCC.PRM
  Tot(92)        7        5     2072    196.1    531.7   1456.8   693.00      0.0    181.5     14.6     25.7      0.0     98.9       49    276.1    275.5       88     0.000     0.000     0.000     0.000      107        0        0        0        3        4       10    20.393       83     39.8    8.121   -9.900     2.17    0.000    0.000       27        8     2072  Maize_short_Cahul_7May_Optimum_85_NCC.PRM
  Tot(93)        7        5     2073    240.0    583.4   1428.0   701.00      0.0    175.5     64.5     48.9      0.0    140.7       52    203.3    204.0       76     0.000     0.000     0.000     0.000       99        0        0        0        5       14       20    13.742       55     35.5    4.875   -9.900     1.43    0.000    0.000       27        8     2073  Maize_short_Cahul_7May_Optimum_85_NCC.PRM
  Tot(94)        7        5     2074    122.5    669.3   1651.8   709.00      0.0    116.1      6.4     18.2      0.0    121.9       33    183.6    183.6       73     0.000     0.000     0.000     0.000       90        0        0        0        3       28       21    10.275       41     26.8    2.749   -9.900     0.93    0.000    0.000       27        8     2074  Maize_short_Cahul_7May_Optimum_85_NCC.PRM
  Tot(95)        7        5     2075     68.8    618.2   1414.3   717.00      0.0     67.8      1.0      2.9      0.0     92.6       28    180.9    180.9       75     0.000     0.000     0.000     0.000       93        0        0        0        9       25       20    11.199       45     29.9    3.346   -9.900     1.23    0.000    0.000       27        8     2075  Maize_short_Cahul_7May_Optimum_85_NCC.PRM
  Tot(96)        7        5     2076    188.4    566.5   1389.0   725.00      0.0    180.9      7.5      8.5      0.0    131.9       66    265.0    264.7       80     0.000     0.000     0.000     0.000      107        0        0        0        7        2       16    18.659       75     39.2    7.317   -9.900     1.84    0.000    0.000       27        8     2076  Maize_short_Cahul_7May_Optimum_85_NCC.PRM
  Tot(97)        7        5     2077     49.3    665.4   1503.5   733.00      0.0     49.3      0.0      0.0      0.0     77.5       22    189.5    189.8       72     0.000     0.000     0.000     0.000       97        0        0        0        3       21       21    12.038       48     33.3    4.010   -9.900     1.51    0.000    0.000       27        8     2077  Maize_short_Cahul_7May_Optimum_85_NCC.PRM
  Tot(98)        7        5     2078     74.4    650.3   1509.7   742.00      0.0     73.2      1.2      0.7      0.0     99.1       28    181.8    181.8       75     0.000     0.000     0.000     0.000       92        0        0        0        7       28       19    10.916       44     29.2    3.186   -9.900     1.15    0.000    0.000       27        8     2078  Maize_short_Cahul_7May_Optimum_85_NCC.PRM
  Tot(99)        7        5     2079    118.3    564.3   1461.1   750.00      0.0    113.5      4.8     11.1      0.0    123.9       48    194.7    194.7       76     0.000     0.000     0.000     0.000       99        0        0        0        6       17       19    13.248       54     35.9    4.751   -9.900     1.50    0.000    0.000       27        8     2079  Maize_short_Cahul_7May_Optimum_85_NCC.PRM
 Tot(100)        7        5     2080    102.9    563.1   1311.4   758.00      0.0    102.2      0.7      1.9      0.0    114.1       45    204.4    204.4       77     0.000     0.000     0.000     0.000      101        0        0        0       13       16       20    13.887       57     37.6    5.217   -9.900     1.65    0.000    0.000       27        8     2080  Maize_short_Cahul_7May_Optimum_85_NCC.PRM
 Tot(101)        7        5     2081     65.1    622.3   1490.6   767.00      0.0     65.1      0.0      0.0      0.0     88.1       29    195.1    195.1       73     0.000     0.000     0.000     0.000      107        0        0        0        4       19       28    12.607       51     33.6    4.236   -9.900     1.50    0.000    0.000       27        8     2081  Maize_short_Cahul_7May_Optimum_85_NCC.PRM
 Tot(102)        7        5     2082    255.3    524.9   1441.9   775.00      0.0    242.5     12.8     14.7      0.0    147.4       76    284.6    283.1       93     0.000     0.000     0.000     0.000      107        0        0        0        6        4        5    21.750       89     40.2    8.748   -9.900     2.03    0.000    0.000       27        8     2082  Maize_short_Cahul_7May_Optimum_85_NCC.PRM
 Tot(103)        7        5     2083     98.4    603.8   1560.1   784.00      0.0     98.1      0.3      0.0      0.0    116.7       39    197.2    198.7       76     0.000     0.000     0.000     0.000       99        0        0        0        3       19       19    13.101       53     35.7    4.672   -9.900     1.51    0.000    0.000       27        8     2083  Maize_short_Cahul_7May_Optimum_85_NCC.PRM
 Tot(104)        7        5     2084    123.1    526.1   1364.2   792.00      0.0    122.4      0.7      0.0      0.0     90.0       43    250.7    249.8       86     0.000     0.000     0.000     0.000      107        0        0        0        8       10        9    19.681       81     39.8    7.835   -9.900     2.30    0.000    0.000       27        8     2084  Maize_short_Cahul_7May_Optimum_85_NCC.PRM
 Tot(105)        7        5     2085     55.9    729.6   1735.9   801.00      0.0     55.8      0.1      0.0      0.0     93.4       20    158.1    159.0       75     0.000     0.000     0.000     0.000       88        0        0        0        3       34       19     8.579       35     25.0    2.149   -9.900     0.91    0.000    0.000       27        8     2085  Maize_short_Cahul_7May_Optimum_85_NCC.PRM
 Tot(106)        7        5     2086    109.1    588.9   1495.6   810.00      0.0    108.9      0.2      0.0      0.0    100.2       39    232.1    231.9       79     0.000     0.000     0.000     0.000      107        0        0        0        2       14       16    16.862       69     39.4    6.636   -9.900     2.00    0.000    0.000       27        8     2086  Maize_short_Cahul_7May_Optimum_85_NCC.PRM
 Tot(107)        7        5     2087    163.8    574.9   1430.6   818.00      0.0    161.0      2.8      1.8      0.0    128.9       61    254.5    254.3       80     0.000     0.000     0.000     0.000      107        0        0        0        7        3       15    17.847       75     39.3    7.006   -9.900     1.83    0.000    0.000       27        8     2087  Maize_short_Cahul_7May_Optimum_85_NCC.PRM
 Tot(108)        7        5     2088    168.0    637.7   1642.0   827.00      0.0    147.5     20.5     43.2      0.0    124.7       39    194.9    195.2       75     0.000     0.000     0.000     0.000       96        0        0        0        5       22       20    12.274       50     32.9    4.035   -9.900     1.28    0.000    0.000       27        8     2088  Maize_short_Cahul_7May_Optimum_85_NCC.PRM
 Tot(109)        7        5     2089     75.2    644.8   1476.3   836.00      0.0     75.2      0.0      0.9      0.0    100.7       30    184.4    184.4       76     0.000     0.000     0.000     0.000       94        0        0        0        9       26       20    11.177       46     30.8    3.448   -9.900     1.22    0.000    0.000       27        8     2089  Maize_short_Cahul_7May_Optimum_85_NCC.PRM
 Tot(110)        7        5     2090    104.3    648.7   1557.9   845.00      0.0    102.9      1.4      1.1      0.0    125.7       37    184.4    184.4       75     0.000     0.000     0.000     0.000       93        0        0        0        7       23       20    11.367       46     30.1    3.425   -9.900     1.12    0.000    0.000       27        8     2090  Maize_short_Cahul_7May_Optimum_85_NCC.PRM
 Tot(111)        7        5     2091    155.2    552.6   1424.0   854.00      0.0    150.1      5.1      9.5      0.0    119.5       60    244.0    243.8       80     0.000     0.000     0.000     0.000      107        0        0        0        6        6       17    17.374       72     39.2    6.813   -9.900     1.87    0.000    0.000       27        8     2091  Maize_short_Cahul_7May_Optimum_85_NCC.PRM
 Tot(112)        7        5     2092    103.9    664.8   1598.3   863.00      0.0    103.3      0.6      0.0      0.0    113.0       36    210.4    210.6       73     0.000     0.000     0.000     0.000       99        0        0        0        3       15       21    13.062       54     35.1    4.583   -9.900     1.42    0.000    0.000       27        8     2092  Maize_short_Cahul_7May_Optimum_85_NCC.PRM
 Tot(113)        7        5     2093    214.9    649.3   1667.8   872.00      0.0    207.9      7.0      8.1      0.0    149.8       64    275.3    275.1       78     0.000     0.000     0.000     0.000      107        0        0        0        1        2       18    17.485       72     38.8    6.782   -9.900     1.60    0.000    0.000       27        8     2093  Maize_short_Cahul_7May_Optimum_85_NCC.PRM
 Tot(114)        7        5     2094    137.1    593.5   1533.0   881.00      0.0    122.8     14.3     32.4      0.0    110.4       40    194.0    194.2       77     0.000     0.000     0.000     0.000       97        0        0        0        6       19       20    12.668       52     33.8    4.280   -9.900     1.42    0.000    0.000       27        8     2094  Maize_short_Cahul_7May_Optimum_85_NCC.PRM
 Tot(115)        7        5     2095    206.0    576.1   1531.4   890.00      0.0    194.9     11.1     16.3      0.0    140.5       69    261.3    261.0       81     0.000     0.000     0.000     0.000      107        0        0        0        4        2       15    18.253       76     39.3    7.168   -9.900     1.78    0.000    0.000       27        8     2095  Maize_short_Cahul_7May_Optimum_85_NCC.PRM
 Tot(116)        7        5     2096     98.5    683.7   1683.7   899.00      0.0     97.8      0.7      3.9      0.0    105.3       31    208.1    208.4       74     0.000     0.000     0.000     0.000      100        0        0        0        1       17       21    12.907       53     36.2    4.667   -9.900     1.50    0.000    0.000       27        8     2096  Maize_short_Cahul_7May_Optimum_85_NCC.PRM
 Tot(117)        7        5     2097     91.1    693.1   1642.5   908.00      0.0     90.9      0.2      0.0      0.0    116.4       29    180.6    180.6       78     0.000     0.000     0.000     0.000       94        0        0        0        3       29       19    10.283       43     31.1    3.194   -9.900     1.09    0.000    0.000       27        8     2097  Maize_short_Cahul_7May_Optimum_85_NCC.PRM
 Tot(118)        7        5     2098    240.4    582.4   1495.3   917.00      0.0    215.9     24.5     38.0      0.0    142.0       69    257.3    257.0       81     0.000     0.000     0.000     0.000      107        0        0        0        8        7       16    17.114       72     39.6    6.770   -9.900     1.70    0.000    0.000       27        8     2098  Maize_short_Cahul_7May_Optimum_85_NCC.PRM
 Tot(119)        7        5     2099    112.2    589.4   1464.0   927.00      0.0    107.9      4.3      7.6      0.0     90.3       39    234.0    234.1       77     0.000     0.000     0.000     0.000      107        0        0        0        7        7       17    16.955       71     39.1    6.630   -9.900     2.04    0.000    0.000       27        8     2099  Maize_short_Cahul_7May_Optimum_85_NCC.PRM
