AquaCrop 7.0 (August 2022) - Output created on (date) : 23-11-2022   at (time) : 14:33:57

    RunNr     Day1   Month1    Year1     Rain      ETo       GD     CO2      Irri   Infilt   Runoff    Drain   Upflow        E     E/Ex       Tr      TrW   Tr/Trx    SaltIn   SaltOut    SaltUp  SaltProf     Cycle   SaltStr  FertStr  WeedStr  TempStr   ExpStr   StoStr  BioMass  Brelative   HI    Y(dry)  Y(fresh)    WPet      Bin     Bout     DayN   MonthN    YearN
                                           mm       mm  degC.day    ppm        mm       mm       mm       mm       mm       mm        %       mm       mm        %    ton/ha    ton/ha    ton/ha    ton/ha      days       %        %        %        %        %        %    ton/ha        %       %    ton/ha   ton/ha    kg/m3   ton/ha   ton/ha
   Tot(1)       22        5     1981    240.8    460.2   1219.9   340.11      0.0    210.3     30.5     45.0      0.0    104.1       48    244.4    244.0      100     0.000     0.000     0.000     0.000      107        0        0        0       13        3        0    19.498       95     40.1    7.815   -9.900     2.24    0.000    0.000       11        9     1981  Maize_Short_Soroca_22May_Optimum_85_MPI.PRM
   Tot(2)       22        5     1982    274.6    445.7   1204.3   341.22      0.0    238.9     35.7     42.9      0.0    128.1       64    250.3    250.0      100     0.000     0.000     0.000     0.000      107        0        0        0       11        2        0    20.705       96     40.0    8.291   -9.900     2.19    0.000    0.000       11        9     1982  Maize_Short_Soroca_22May_Optimum_85_MPI.PRM
   Tot(3)       22        5     1983    219.2    435.3   1214.1   342.84      0.0    214.3      4.9      0.1      0.0    106.4       56    242.1    241.1      100     0.000     0.000     0.000     0.000      107        0        0        0       11        1        0    20.404       97     40.0    8.162   -9.900     2.34    0.000    0.000       11        9     1983  Maize_Short_Soroca_22May_Optimum_85_MPI.PRM
   Tot(4)       22        5     1984    324.1    420.3   1075.3   344.40      0.0    305.9     18.2     19.5      0.0    155.4       90    234.9    236.4      100     0.000     0.000     0.000     0.000      107        0        0        0       18        0        0    19.737       98     40.0    7.895   -9.900     2.02    0.000    0.000       11        9     1984  Maize_Short_Soroca_22May_Optimum_85_MPI.PRM
   Tot(5)       22        5     1985    381.4    448.7   1131.4   345.87      0.0    343.1     38.3     63.4      0.0    143.5       80    261.4    261.9      100     0.000     0.000     0.000     0.000      107        0        0        0       17        1        0    19.769       97     40.1    7.930   -9.900     1.96    0.000    0.000       11        9     1985  Maize_Short_Soroca_22May_Optimum_85_MPI.PRM
   Tot(6)       22        5     1986    162.2    512.9   1240.3   347.19      0.0    161.8      0.4      0.0      0.0    109.8       46    253.4    252.8       94     0.000     0.000     0.000     0.000      107        0        0        0       13        7        5    18.052       88     40.1    7.241   -9.900     1.99    0.000    0.000       11        9     1986  Maize_Short_Soroca_22May_Optimum_85_MPI.PRM
   Tot(7)       22        5     1987    256.6    456.5   1133.8   348.98      0.0    246.2     10.4     15.1      0.0    136.1       68    245.6    245.3      100     0.000     0.000     0.000     0.000      107        0        0        0       17       12        0    18.730       94     40.5    7.588   -9.900     1.99    0.000    0.000       11        9     1987  Maize_Short_Soroca_22May_Optimum_85_MPI.PRM
   Tot(8)       22        5     1988    324.3    426.4   1235.2   351.45      0.0    304.9     19.4     38.9      0.0    140.6       84    261.7    262.8      100     0.000     0.000     0.000     0.000      107        0        0        0       12        1        0    20.589       98     40.1    8.252   -9.900     2.05    0.000    0.000       11        9     1988  Maize_Short_Soroca_22May_Optimum_85_MPI.PRM
   Tot(9)       22        5     1989    398.6    434.0   1151.2   352.89      0.0    334.0     64.6     24.5      0.0    114.7       60    245.6    246.2      100     0.000     0.000     0.000     0.000      107        0        0        0       14        4        0    19.987       96     40.1    8.023   -9.900     2.23    0.000    0.000       11        9     1989  Maize_Short_Soroca_22May_Optimum_85_MPI.PRM
  Tot(10)       22        5     1990    193.6    463.7   1109.4   354.16      0.0    190.8      2.8      6.4      0.0    145.0       75    243.2    243.1       92     0.000     0.000     0.000     0.000      107        0        0        0       17        6        8    18.291       87     40.2    7.347   -9.900     1.89    0.000    0.000       11        9     1990  Maize_Short_Soroca_22May_Optimum_85_MPI.PRM
  Tot(11)       22        5     1991    419.0    410.7   1159.5   355.48      0.0    366.8     52.2     52.7      0.0    138.5       81    241.6    240.6      100     0.000     0.000     0.000     0.000      107        0        0        0       14        1        0    20.834       98     40.0    8.339   -9.900     2.19    0.000    0.000       11        9     1991  Maize_Short_Soroca_22May_Optimum_85_MPI.PRM
  Tot(12)       22        5     1992    208.9    511.5   1268.1   356.27      0.0    203.2      5.7     14.5      0.0    147.2       71    241.9    243.0       80     0.000     0.000     0.000     0.000      107        0        0        0       11       13       14    15.503       70     39.8    6.174   -9.900     1.59    0.000    0.000       11        9     1992  Maize_Short_Soroca_22May_Optimum_85_MPI.PRM
  Tot(13)       22        5     1993    240.0    450.5   1102.8   356.95      0.0    233.7      6.3      5.7      0.0    119.2       61    243.7    242.4      100     0.000     0.000     0.000     0.000      107        0        0        0       17        2        0    19.030       97     40.1    7.623   -9.900     2.10    0.000    0.000       11        9     1993  Maize_Short_Soroca_22May_Optimum_85_MPI.PRM
  Tot(14)       22        5     1994    254.5    502.2   1248.0   358.63      0.0    222.8     31.7     20.8      0.0    124.3       56    248.7    248.7       87     0.000     0.000     0.000     0.000      107        0        0        0       12       13        8    17.227       76     40.5    6.973   -9.900     1.87    0.000    0.000       11        9     1994  Maize_Short_Soroca_22May_Optimum_85_MPI.PRM
  Tot(15)       22        5     1995    376.0    484.7   1320.2   360.62      0.0    320.5     55.5     21.5      0.0    109.4       50    278.5    278.2      100     0.000     0.000     0.000     0.000      107        0        0        0        6        4        0    21.120       95     40.1    8.460   -9.900     2.18    0.000    0.000       11        9     1995  Maize_Short_Soroca_22May_Optimum_85_MPI.PRM
  Tot(16)       22        5     1996    300.9    473.4   1194.7   362.37      0.0    280.7     20.2     14.7      0.0     98.5       42    244.4    246.0      100     0.000     0.000     0.000     0.000      107        0        0        0       13        3        0    19.712       95     40.0    7.885   -9.900     2.30    0.000    0.000       11        9     1996  Maize_Short_Soroca_22May_Optimum_85_MPI.PRM
  Tot(17)       22        5     1997    330.4    417.9   1118.9   363.47      0.0    311.2     19.2     16.2      0.0    121.6       65    228.4    228.1      100     0.000     0.000     0.000     0.000      107        0        0        0       15        1        0    20.623       97     40.0    8.249   -9.900     2.36    0.000    0.000       11        9     1997  Maize_Short_Soroca_22May_Optimum_85_MPI.PRM
  Tot(18)       22        5     1998    279.4    435.7   1188.1   366.50      0.0    261.5     17.9     17.9      0.0    117.5       66    246.1    244.0      100     0.000     0.000     0.000     0.000      107        0        0        0       15        1        0    19.204       97     40.0    7.683   -9.900     2.11    0.000    0.000       11        9     1998  Maize_Short_Soroca_22May_Optimum_85_MPI.PRM
  Tot(19)       22        5     1999    167.8    514.8   1406.8   368.14      0.0    167.8      0.0      0.0      0.0    106.3       41    257.4    258.5       94     0.000     0.000     0.000     0.000      107        0        0        0        3       16        4    19.349       84     40.5    7.845   -9.900     2.16    0.000    0.000       11        9     1999  Maize_Short_Soroca_22May_Optimum_85_MPI.PRM
  Tot(20)       22        5     2000    266.5    494.1   1237.4   369.41      0.0    256.4     10.1     11.7      0.0    112.2       48    270.3    269.9      100     0.000     0.000     0.000     0.000      107        0        0        0       12        2        0    20.703       95     40.0    8.282   -9.900     2.17    0.000    0.000       11        9     2000  Maize_Short_Soroca_22May_Optimum_85_MPI.PRM
  Tot(21)       22        5     2001    315.8    471.8   1256.9   371.07      0.0    291.7     24.1     19.9      0.0    135.7       74    285.6    287.3       96     0.000     0.000     0.000     0.000      107        0        0        0       13        1        4    20.484       92     40.0    8.190   -9.900     1.94    0.000    0.000       11        9     2001  Maize_Short_Soroca_22May_Optimum_85_MPI.PRM
  Tot(22)       22        5     2002    383.6    500.9   1374.8   373.16      0.0    349.5     34.1      2.8      0.0    144.8       64    295.6    295.2      100     0.000     0.000     0.000     0.000      107        0        0        0        7       10        0    21.668       93     40.1    8.690   -9.900     1.97    0.000    0.000       11        9     2002  Maize_Short_Soroca_22May_Optimum_85_MPI.PRM
  Tot(23)       22        5     2003    341.0    524.1   1271.7   375.80      0.0    288.4     52.6     47.8      0.0    102.3       39    266.2    265.0      100     0.000     0.000     0.000     0.000      107        0        0        0       11        4        0    20.090       94     40.0    8.038   -9.900     2.18    0.000    0.000       11        9     2003  Maize_Short_Soroca_22May_Optimum_85_MPI.PRM
  Tot(24)       22        5     2004    246.8    480.3   1170.9   377.49      0.0    225.9     20.9      0.0      0.0     76.1       31    243.8    245.6      100     0.000     0.000     0.000     0.000      107        0        0        0       12        7        0    20.107       93     40.1    8.065   -9.900     2.52    0.000    0.000       11        9     2004  Maize_Short_Soroca_22May_Optimum_85_MPI.PRM
  Tot(25)       22        5     2005    191.9    472.0   1278.0   379.80      0.0    190.3      1.6      0.5      0.0    108.7       51    269.4    267.5       99     0.000     0.000     0.000     0.000      107        0        0        0        8        5        1    21.696       95     40.2    8.724   -9.900     2.31    0.000    0.000       11        9     2005  Maize_Short_Soroca_22May_Optimum_85_MPI.PRM
  Tot(26)       22        5     2006    297.5    485.6   1226.9   381.90      0.0    283.3     14.2     20.3      0.0    130.8       64    286.8    287.4       99     0.000     0.000     0.000     0.000      107        0        0        0       14       11        0    20.990       94     40.5    8.503   -9.900     2.04    0.000    0.000       11        9     2006  Maize_Short_Soroca_22May_Optimum_85_MPI.PRM
  Tot(27)       22        5     2007    171.9    576.2   1439.4   383.77      0.0    171.9      0.0      0.0      0.0    111.7       35    248.0    248.3       90     0.000     0.000     0.000     0.000      107        0        0        0        5       24        7    16.856       74     40.8    6.870   -9.900     1.91    0.000    0.000       11        9     2007  Maize_Short_Soroca_22May_Optimum_85_MPI.PRM
  Tot(28)       22        5     2008    348.1    533.3   1326.6   385.59      0.0    288.2     59.9      0.7      0.0    123.6       54    317.8    317.1      100     0.000     0.000     0.000     0.000      107        0        0        0        6        6        0    21.950       94     40.0    8.780   -9.900     1.99    0.000    0.000       11        9     2008  Maize_Short_Soroca_22May_Optimum_85_MPI.PRM
  Tot(29)       22        5     2009    203.0    548.8   1334.5   387.37      0.0    201.4      1.6      0.3      0.0    154.6       62    265.5    266.8       86     0.000     0.000     0.000     0.000      107        0        0        0        7        8       13    17.783       76     40.0    7.113   -9.900     1.69    0.000    0.000       11        9     2009  Maize_Short_Soroca_22May_Optimum_85_MPI.PRM
  Tot(30)       22        5     2010    347.1    480.7   1367.9   389.85      0.0    318.5     28.6     55.2      0.0    140.3       70    283.4    282.4       98     0.000     0.000     0.000     0.000      107        0        0        0        9        1        1    21.105       96     40.0    8.452   -9.900     2.00    0.000    0.000       11        9     2010  Maize_Short_Soroca_22May_Optimum_85_MPI.PRM
  Tot(31)       22        5     2011    182.7    539.3   1341.3   391.63      0.0    180.8      1.9      0.0      0.0    124.7       48    270.0    270.8       91     0.000     0.000     0.000     0.000      107        0        0        0        6        7        8    19.361       84     39.9    7.733   -9.900     1.96    0.000    0.000       11        9     2011  Maize_Short_Soroca_22May_Optimum_85_MPI.PRM
  Tot(32)       22        5     2012    126.3    606.4   1414.1   393.82      0.0    126.0      0.3      0.0      0.0    116.6       35    223.3    223.5       79     0.000     0.000     0.000     0.000      107        0        0        0        6       25       16    13.891       61     40.4    5.608   -9.900     1.65    0.000    0.000       11        9     2012  Maize_Short_Soroca_22May_Optimum_85_MPI.PRM
  Tot(33)       22        5     2013    245.3    495.7   1303.4   396.48      0.0    225.7     19.6     20.7      0.0    155.8       71    237.6    237.3       86     0.000     0.000     0.000     0.000      107        0        0        0        7        9        8    17.534       77     40.2    7.050   -9.900     1.79    0.000    0.000       11        9     2013  Maize_Short_Soroca_22May_Optimum_85_MPI.PRM
  Tot(34)       22        5     2014    253.7    516.6   1359.2   398.55      0.0    231.9     21.8     10.0      0.0    103.5       48    307.9    306.5       99     0.000     0.000     0.000     0.000      107        0        0        0        7        2        1    22.091       95     40.0    8.837   -9.900     2.15    0.000    0.000       11        9     2014  Maize_Short_Soroca_22May_Optimum_85_MPI.PRM
  Tot(35)       22        5     2015     64.6    613.4   1397.9   402.00      0.0     64.6      0.0      0.0      0.0     90.2       24    179.8    182.0       77     0.000     0.000     0.000     0.000       97        0        0        0        5       28       19    10.594       46     34.0    3.601   -9.900     1.39    0.000    0.000       11        9     2015  Maize_Short_Soroca_22May_Optimum_85_MPI.PRM
  Tot(36)       22        5     2016    223.5    541.1   1411.6   404.00      0.0    221.3      2.2      0.5      0.0    172.0       75    271.0    270.3       84     0.000     0.000     0.000     0.000      107        0        0        0        5       16       13    17.870       75     40.4    7.219   -9.900     1.63    0.000    0.000       11        9     2016  Maize_Short_Soroca_22May_Optimum_85_MPI.PRM
  Tot(37)       22        5     2017    190.2    557.9   1350.9   407.00      0.0    188.7      1.5      0.3      0.0    148.1       57    258.0    258.1       86     0.000     0.000     0.000     0.000      107        0        0        0        6       12       13    17.404       75     40.1    6.980   -9.900     1.72    0.000    0.000       11        9     2017  Maize_Short_Soroca_22May_Optimum_85_MPI.PRM
  Tot(38)       22        5     2018    247.0    517.0   1451.6   410.00      0.0    234.6     12.4      7.5      0.0    111.3       46    293.1    292.7       99     0.000     0.000     0.000     0.000      107        0        0        0        4        3        1    22.356       94     40.0    8.941   -9.900     2.21    0.000    0.000       11        9     2018  Maize_Short_Soroca_22May_Optimum_85_MPI.PRM
  Tot(39)       22        5     2019    224.9    551.2   1441.3   413.00      0.0    207.2     17.7     24.8      0.0    162.1       65    244.6    245.3       82     0.000     0.000     0.000     0.000      107        0        0        0        3        9       16    17.160       73     39.6    6.802   -9.900     1.67    0.000    0.000       11        9     2019  Maize_Short_Soroca_22May_Optimum_85_MPI.PRM
  Tot(40)       22        5     2020    191.1    454.3   1082.7   416.00      0.0    190.1      1.0      0.5      0.0    114.0       60    249.6    249.3       99     0.000     0.000     0.000     0.000      107        0        0        0       20        3        1    19.566       95     40.1    7.853   -9.900     2.16    0.000    0.000       11        9     2020  Maize_Short_Soroca_22May_Optimum_85_MPI.PRM
  Tot(41)       22        5     2021    248.8    457.7   1121.7   419.00      0.0    235.2     13.6     14.5      0.0    102.9       52    256.5    255.3      100     0.000     0.000     0.000     0.000      107        0        0        0       16        3        0    20.706       96     40.0    8.291   -9.900     2.31    0.000    0.000       11        9     2021  Maize_Short_Soroca_22May_Optimum_85_MPI.PRM
  Tot(42)       22        5     2022    292.8    443.1   1107.2   422.00      0.0    261.3     31.5     43.3      0.0    133.0       69    234.8    235.8      100     0.000     0.000     0.000     0.000      107        0        0        0       16        1        0    20.020       96     40.0    8.013   -9.900     2.18    0.000    0.000       11        9     2022  Maize_Short_Soroca_22May_Optimum_85_MPI.PRM
  Tot(43)       22        5     2023    260.3    426.1   1088.6   425.00      0.0    241.8     18.5      0.5      0.0    100.0       51    222.7    222.0      100     0.000     0.000     0.000     0.000      107        0        0        0       17        4        0    20.490       95     40.0    8.196   -9.900     2.54    0.000    0.000       11        9     2023  Maize_Short_Soroca_22May_Optimum_85_MPI.PRM
  Tot(44)       22        5     2024    210.2    435.0   1008.0   428.00      0.0    205.0      5.2      0.0      0.0    114.5       57    217.1    218.3       99     0.000     0.000     0.000     0.000      107        0        0        0       22        9        1    18.147       93     40.4    7.327   -9.900     2.21    0.000    0.000       11        9     2024  Maize_Short_Soroca_22May_Optimum_85_MPI.PRM
  Tot(45)       22        5     2025    167.2    465.0   1091.0   431.00      0.0    164.2      3.0      0.0      0.0     97.3       43    224.3    224.6       93     0.000     0.000     0.000     0.000      107        0        0        0       17       12        5    17.574       85     40.4    7.108   -9.900     2.21    0.000    0.000       11        9     2025  Maize_Short_Soroca_22May_Optimum_85_MPI.PRM
  Tot(46)       22        5     2026    246.5    491.9   1290.0   435.00      0.0    235.9     10.6      0.0      0.0    109.0       38    217.7    217.1      100     0.000     0.000     0.000     0.000      107        0        0        0        9        8        0    20.123       91     40.0    8.055   -9.900     2.47    0.000    0.000       11        9     2026  Maize_Short_Soroca_22May_Optimum_85_MPI.PRM
  Tot(47)       22        5     2027    263.4    456.0   1163.8   438.00      0.0    251.7     11.7      1.7      0.0    106.3       46    220.6    220.4      100     0.000     0.000     0.000     0.000      107        0        0        0       13        7        0    19.921       94     40.2    8.007   -9.900     2.45    0.000    0.000       11        9     2027  Maize_Short_Soroca_22May_Optimum_85_MPI.PRM
  Tot(48)       22        5     2028    297.2    441.4   1066.1   442.00      0.0    289.3      7.9     11.9      0.0    126.3       71    252.0    250.7      100     0.000     0.000     0.000     0.000      107        0        0        0       17        1        0    21.449       97     40.1    8.596   -9.900     2.27    0.000    0.000       11        9     2028  Maize_Short_Soroca_22May_Optimum_85_MPI.PRM
  Tot(49)       22        5     2029    360.4    423.0   1192.9   445.00      0.0    293.0     67.4     82.2      0.0    132.3       71    235.0    236.6      100     0.000     0.000     0.000     0.000      107        0        0        0       11        0        0    22.389       98     40.0    8.958   -9.900     2.44    0.000    0.000       11        9     2029  Maize_Short_Soroca_22May_Optimum_85_MPI.PRM
  Tot(50)       22        5     2030    151.6    442.1    985.7   449.00      0.0    150.2      1.4      4.2      0.0     99.0       50    209.7    209.9      100     0.000     0.000     0.000     0.000      107        0        0        0       23        3        0    18.811       96     40.1    7.545   -9.900     2.44    0.000    0.000       11        9     2030  Maize_Short_Soroca_22May_Optimum_85_MPI.PRM
  Tot(51)       22        5     2031    415.2    405.7   1009.4   452.00      0.0    355.6     59.6    102.9      0.0    127.2       76    209.7    210.1      100     0.000     0.000     0.000     0.000      107        0        0        0       24        0        0    18.711       98     40.0    7.488   -9.900     2.22    0.000    0.000       11        9     2031  Maize_Short_Soroca_22May_Optimum_85_MPI.PRM
  Tot(52)       22        5     2032    192.9    496.5   1171.0   456.00      0.0    185.6      7.3      0.0      0.0     92.2       39    259.7    258.5       99     0.000     0.000     0.000     0.000      107        0        0        0       13       18        0    20.126       88     40.4    8.129   -9.900     2.31    0.000    0.000       11        9     2032  Maize_Short_Soroca_22May_Optimum_85_MPI.PRM
  Tot(53)       22        5     2033    310.5    479.3   1122.0   460.00      0.0    270.9     39.6     51.6      0.0    125.3       60    254.6    254.9      100     0.000     0.000     0.000     0.000      107        0        0        0       14        4        0    20.209       96     40.1    8.111   -9.900     2.14    0.000    0.000       11        9     2033  Maize_Short_Soroca_22May_Optimum_85_MPI.PRM
  Tot(54)       22        5     2034    217.9    525.2   1348.0   464.00      0.0    204.5     13.4     15.0      0.0     90.0       35    272.9    270.7       99     0.000     0.000     0.000     0.000      107        0        0        0        5       10        0    21.190       90     40.2    8.510   -9.900     2.34    0.000    0.000       11        9     2034  Maize_Short_Soroca_22May_Optimum_85_MPI.PRM
  Tot(55)       22        5     2035    162.2    502.0   1126.7   468.00      0.0    161.0      1.2      3.8      0.0    130.2       53    223.8    226.9       90     0.000     0.000     0.000     0.000      107        0        0        0       16       14        8    16.942       79     40.1    6.798   -9.900     1.92    0.000    0.000       11        9     2035  Maize_Short_Soroca_22May_Optimum_85_MPI.PRM
  Tot(56)       22        5     2036    151.5    554.5   1283.4   472.00      0.0    149.4      2.1      2.3      0.0    120.1       47    236.1    236.2       81     0.000     0.000     0.000     0.000      107        0        0        0       10       13       13    16.343       70     39.8    6.504   -9.900     1.83    0.000    0.000       11        9     2036  Maize_Short_Soroca_22May_Optimum_85_MPI.PRM
  Tot(57)       22        5     2037    197.3    442.2   1139.7   476.00      0.0    193.5      3.8     10.1      0.0    133.5       75    243.1    242.1       98     0.000     0.000     0.000     0.000      107        0        0        0       12        1        2    21.179       96     40.0    8.480   -9.900     2.25    0.000    0.000       11        9     2037  Maize_Short_Soroca_22May_Optimum_85_MPI.PRM
  Tot(58)       22        5     2038    104.4    514.5   1124.2   481.00      0.0    104.4      0.0      0.0      0.0     98.4       40    219.6    220.4       87     0.000     0.000     0.000     0.000      107        0        0        0       20       18       13    15.782       75     40.3    6.360   -9.900     2.00    0.000    0.000       11        9     2038  Maize_Short_Soroca_22May_Optimum_85_MPI.PRM
  Tot(59)       22        5     2039    192.9    475.4   1259.9   485.00      0.0    185.1      7.8      4.7      0.0     94.0       45    263.7    261.4      100     0.000     0.000     0.000     0.000      107        0        0        0        8        2        0    22.205       96     40.0    8.884   -9.900     2.48    0.000    0.000       11        9     2039  Maize_Short_Soroca_22May_Optimum_85_MPI.PRM
  Tot(60)       22        5     2040    261.3    423.4   1114.3   489.00      0.0    241.9     19.4     18.3      0.0    137.6       81    240.0    241.0      100     0.000     0.000     0.000     0.000      107        0        0        0       18        0        0    21.590       98     40.0    8.638   -9.900     2.29    0.000    0.000       11        9     2040  Maize_Short_Soroca_22May_Optimum_85_MPI.PRM
  Tot(61)       22        5     2041    239.7    486.3   1104.2   494.00      0.0    217.0     22.7      0.0      0.0    101.2       45    249.2    249.5      100     0.000     0.000     0.000     0.000      107        0        0        0       17        5        0    20.311       94     40.1    8.141   -9.900     2.32    0.000    0.000       11        9     2041  Maize_Short_Soroca_22May_Optimum_85_MPI.PRM
  Tot(62)       22        5     2042    230.9    463.5   1149.6   499.00      0.0    225.0      5.9      0.0      0.0    106.8       51    251.6    251.3      100     0.000     0.000     0.000     0.000      107        0        0        0       14        3        0    22.019       96     40.0    8.815   -9.900     2.46    0.000    0.000       11        9     2042  Maize_Short_Soroca_22May_Optimum_85_MPI.PRM
  Tot(63)       22        5     2043    154.0    485.6   1278.3   504.00      0.0    153.5      0.5      2.0      0.0    120.5       61    245.3    246.3       86     0.000     0.000     0.000     0.000      107        0        0        0        6       10       11    19.198       79     40.2    7.721   -9.900     2.11    0.000    0.000       11        9     2043  Maize_Short_Soroca_22May_Optimum_85_MPI.PRM
  Tot(64)       22        5     2044    198.2    490.5   1220.3   508.00      0.0    187.9     10.3      8.8      0.0    109.3       50    260.3    258.4       98     0.000     0.000     0.000     0.000      107        0        0        0       12       10        1    21.023       92     40.3    8.467   -9.900     2.29    0.000    0.000       11        9     2044  Maize_Short_Soroca_22May_Optimum_85_MPI.PRM
  Tot(65)       22        5     2045    143.5    492.6   1258.2   513.00      0.0    143.4      0.1      0.0      0.0    104.4       42    231.5    231.8       95     0.000     0.000     0.000     0.000      107        0        0        0        7       14        4    20.056       86     40.4    8.112   -9.900     2.42    0.000    0.000       11        9     2045  Maize_Short_Soroca_22May_Optimum_85_MPI.PRM
  Tot(66)       22        5     2046    369.6    439.6   1210.8   519.00      0.0    345.3     24.3     34.9      0.0    131.5       74    258.2    259.7      100     0.000     0.000     0.000     0.000      107        0        0        0       10        1        0    23.011       97     40.1    9.219   -9.900     2.37    0.000    0.000       11        9     2046  Maize_Short_Soroca_22May_Optimum_85_MPI.PRM
  Tot(67)       22        5     2047    241.3    431.2   1147.0   524.00      0.0    234.1      7.2      7.9      0.0    128.5       63    216.0    213.7      100     0.000     0.000     0.000     0.000      107        0        0        0       14        5        0    20.529       95     40.0    8.221   -9.900     2.39    0.000    0.000       11        9     2047  Maize_Short_Soroca_22May_Optimum_85_MPI.PRM
  Tot(68)       22        5     2048    173.3    531.2   1280.4   529.00      0.0    167.9      5.4      0.0      0.0    109.8       47    266.0    267.7       89     0.000     0.000     0.000     0.000      107        0        0        0       10       19        7    19.747       81     40.7    8.035   -9.900     2.14    0.000    0.000       11        9     2048  Maize_Short_Soroca_22May_Optimum_85_MPI.PRM
  Tot(69)       22        5     2049    154.6    469.5   1195.2   535.00      0.0    154.4      0.2      0.0      0.0     98.1       55    262.0    261.5       95     0.000     0.000     0.000     0.000      107        0        0        0       14        2        4    20.934       92     40.0    8.377   -9.900     2.33    0.000    0.000       11        9     2049  Maize_Short_Soroca_22May_Optimum_85_MPI.PRM
  Tot(70)       22        5     2050    282.1    448.7   1214.2   541.00      0.0    270.2     11.9      0.0      0.0     95.5       43    223.4    225.0      100     0.000     0.000     0.000     0.000      107        0        0        0       11        3        0    21.738       95     40.0    8.697   -9.900     2.73    0.000    0.000       11        9     2050  Maize_Short_Soroca_22May_Optimum_85_MPI.PRM
  Tot(71)       22        5     2051    241.5    476.9   1200.1   546.00      0.0    226.5     15.0      3.8      0.0    103.5       53    270.8    270.7       98     0.000     0.000     0.000     0.000      107        0        0        0       12        4        1    22.274       95     40.2    8.956   -9.900     2.39    0.000    0.000       11        9     2051  Maize_Short_Soroca_22May_Optimum_85_MPI.PRM
  Tot(72)       22        5     2052    281.5    445.9   1120.6   552.00      0.0    261.3     20.2      0.0      0.0    112.0       57    236.0    234.9      100     0.000     0.000     0.000     0.000      107        0        0        0       17        4        0    21.123       96     40.2    8.487   -9.900     2.44    0.000    0.000       11        9     2052  Maize_Short_Soroca_22May_Optimum_85_MPI.PRM
  Tot(73)       22        5     2053    239.1    513.3   1260.4   558.00      0.0    221.9     17.2      7.9      0.0     94.3       38    256.6    256.5      100     0.000     0.000     0.000     0.000      107        0        0        0       13        6        0    20.897       93     40.1    8.389   -9.900     2.39    0.000    0.000       11        9     2053  Maize_Short_Soroca_22May_Optimum_85_MPI.PRM
  Tot(74)       22        5     2054    140.4    552.7   1346.2   564.00      0.0    129.7     10.7     17.0      0.0     99.5       36    225.4    225.9       84     0.000     0.000     0.000     0.000      107        0        0        0        5       17       13    16.425       68     40.0    6.564   -9.900     2.02    0.000    0.000       11        9     2054  Maize_Short_Soroca_22May_Optimum_85_MPI.PRM
  Tot(75)       22        5     2055    234.8    478.8   1212.9   571.00      0.0    222.9     11.9      4.1      0.0    122.3       63    266.9    265.7       98     0.000     0.000     0.000     0.000      107        0        0        0       12        6        1    22.206       95     40.3    8.948   -9.900     2.30    0.000    0.000       11        9     2055  Maize_Short_Soroca_22May_Optimum_85_MPI.PRM
  Tot(76)       22        5     2056     86.7    534.9   1278.6   577.00      0.0     86.7      0.0      0.0      0.0     86.7       31    214.2    215.7       85     0.000     0.000     0.000     0.000      107        0        0        0        8       15       12    16.945       72     40.0    6.783   -9.900     2.25    0.000    0.000       11        9     2056  Maize_Short_Soroca_22May_Optimum_85_MPI.PRM
  Tot(77)       22        5     2057    182.8    547.7   1239.7   583.00      0.0    166.5     16.3      0.0      0.0    107.6       44    245.6    244.9       86     0.000     0.000     0.000     0.000      107        0        0        0       13       17        8    17.708       77     40.6    7.190   -9.900     2.04    0.000    0.000       11        9     2057  Maize_Short_Soroca_22May_Optimum_85_MPI.PRM
  Tot(78)       22        5     2058    347.6    419.2   1141.8   590.00      0.0    299.5     48.1     45.4      0.0    116.5       73    244.8    245.0      100     0.000     0.000     0.000     0.000      107        0        0        0       15        3        0    22.589       97     40.1    9.056   -9.900     2.51    0.000    0.000       11        9     2058  Maize_Short_Soroca_22May_Optimum_85_MPI.PRM
  Tot(79)       22        5     2059    219.0    542.6   1341.4   597.00      0.0    199.4     19.6     30.6      0.0    136.7       63    254.6    255.5       82     0.000     0.000     0.000     0.000      107        0        0        0        6        5       15    18.531       76     39.5    7.317   -9.900     1.87    0.000    0.000       11        9     2059  Maize_Short_Soroca_22May_Optimum_85_MPI.PRM
  Tot(80)       22        5     2060     95.8    550.3   1266.8   604.00      0.0     95.8      0.0      0.0      0.0     94.3       35    221.8    221.8       83     0.000     0.000     0.000     0.000      107        0        0        0        9       18       14    16.641       71     40.2    6.692   -9.900     2.12    0.000    0.000       11        9     2060  Maize_Short_Soroca_22May_Optimum_85_MPI.PRM
  Tot(81)       22        5     2061    194.9    427.8   1055.4   611.00      0.0    192.9      2.0      4.0      0.0    112.8       68    236.7    236.0      100     0.000     0.000     0.000     0.000      107        0        0        0       22        4        0    20.660       97     40.2    8.311   -9.900     2.38    0.000    0.000       11        9     2061  Maize_Short_Soroca_22May_Optimum_85_MPI.PRM
  Tot(82)       22        5     2062    166.1    498.2   1280.1   618.00      0.0    163.0      3.1      2.3      0.0    128.5       55    235.2    234.3       91     0.000     0.000     0.000     0.000      107        0        0        0        6        7        7    20.313       85     40.1    8.151   -9.900     2.24    0.000    0.000       11        9     2062  Maize_Short_Soroca_22May_Optimum_85_MPI.PRM
  Tot(83)       22        5     2063    178.3    503.8   1272.9   625.00      0.0    166.6     11.7      9.9      0.0     98.9       41    246.0    246.0       97     0.000     0.000     0.000     0.000      107        0        0        0        8        6        2    20.972       90     40.1    8.407   -9.900     2.44    0.000    0.000       11        9     2063  Maize_Short_Soroca_22May_Optimum_85_MPI.PRM
  Tot(84)       22        5     2064    184.8    486.1   1366.1   632.00      0.0    176.5      8.3     12.0      0.0    117.6       53    249.6    250.1       96     0.000     0.000     0.000     0.000      107        0        0        0        4        9        4    21.945       90     40.3    8.847   -9.900     2.41    0.000    0.000       11        9     2064  Maize_Short_Soroca_22May_Optimum_85_MPI.PRM
  Tot(85)       22        5     2065    153.3    484.5   1203.5   639.00      0.0    146.3      7.0     12.5      0.0    100.6       49    243.1    244.2       93     0.000     0.000     0.000     0.000      107        0        0        0       11        3        6    20.679       89     40.0    8.265   -9.900     2.40    0.000    0.000       11        9     2065  Maize_Short_Soroca_22May_Optimum_85_MPI.PRM
  Tot(86)       22        5     2066    250.1    621.0   1427.0   647.00      0.0    222.2     27.9      0.0      0.0    111.6       35    253.7    252.6       86     0.000     0.000     0.000     0.000      107        0        0        0        6       13        7    17.662       75     40.2    7.097   -9.900     1.94    0.000    0.000       11        9     2066  Maize_Short_Soroca_22May_Optimum_85_MPI.PRM
  Tot(87)       22        5     2067    252.0    477.7   1204.1   654.00      0.0    245.7      6.3      0.0      0.0     95.3       42    239.9    239.3      100     0.000     0.000     0.000     0.000      107        0        0        0       12        3        0    21.882       95     40.0    8.760   -9.900     2.61    0.000    0.000       11        9     2067  Maize_Short_Soroca_22May_Optimum_85_MPI.PRM
  Tot(88)       22        5     2068    214.5    491.1   1251.9   662.00      0.0    210.9      3.6     11.2      0.0    120.8       58    253.6    254.7       95     0.000     0.000     0.000     0.000      107        0        0        0       11       12        3    20.368       88     40.6    8.270   -9.900     2.21    0.000    0.000       11        9     2068  Maize_Short_Soroca_22May_Optimum_85_MPI.PRM
  Tot(89)       22        5     2069    283.2    457.1   1279.5   669.00      0.0    254.9     28.3     19.8      0.0    102.8       47    220.5    219.1      100     0.000     0.000     0.000     0.000      107        0        0        0        9        2        0    21.709       96     40.1    8.699   -9.900     2.69    0.000    0.000       11        9     2069  Maize_Short_Soroca_22May_Optimum_85_MPI.PRM
  Tot(90)       22        5     2070    155.3    512.7   1313.8   677.00      0.0    149.7      5.6     11.6      0.0    105.9       52    249.7    251.3       85     0.000     0.000     0.000     0.000      107        0        0        0        8        9       12    19.257       78     39.9    7.689   -9.900     2.16    0.000    0.000       11        9     2070  Maize_Short_Soroca_22May_Optimum_85_MPI.PRM
  Tot(91)       22        5     2071    167.3    548.9   1433.9   685.00      0.0    157.6      9.7     23.4      0.0    122.0       52    235.9    236.3       81     0.000     0.000     0.000     0.000      107        0        0        0        7       13       15    17.945       73     39.6    7.108   -9.900     1.99    0.000    0.000       11        9     2071  Maize_Short_Soroca_22May_Optimum_85_MPI.PRM
  Tot(92)       22        5     2072    147.6    589.8   1395.4   693.00      0.0    143.2      4.4      9.8      0.0    117.1       38    209.7    208.8       81     0.000     0.000     0.000     0.000      107        0        0        0        4       25       12    14.793       61     40.5    5.995   -9.900     1.83    0.000    0.000       11        9     2072  Maize_Short_Soroca_22May_Optimum_85_MPI.PRM
  Tot(93)       22        5     2073    202.5    414.6   1182.0   701.00      0.0    191.7     10.8      6.8      0.0     95.8       53    219.9    219.0      100     0.000     0.000     0.000     0.000      107        0        0        0       10        3        0    22.673       96     40.0    9.071   -9.900     2.87    0.000    0.000       11        9     2073  Maize_Short_Soroca_22May_Optimum_85_MPI.PRM
  Tot(94)       22        5     2074    231.0    443.4   1242.9   709.00      0.0    224.9      6.1      6.1      0.0    117.5       55    215.9    216.3      100     0.000     0.000     0.000     0.000      107        0        0        0        8        1        0    22.292       97     40.0    8.917   -9.900     2.67    0.000    0.000       11        9     2074  Maize_Short_Soroca_22May_Optimum_85_MPI.PRM
  Tot(95)       22        5     2075    120.5    521.4   1358.8   717.00      0.0    118.8      1.7      0.0      0.0    109.6       47    219.7    220.5       83     0.000     0.000     0.000     0.000      107        0        0        0        4       16       13    16.805       68     40.4    6.797   -9.900     2.06    0.000    0.000       11        9     2075  Maize_Short_Soroca_22May_Optimum_85_MPI.PRM
  Tot(96)       22        5     2076    140.7    549.3   1458.4   725.00      0.0    136.0      4.7      8.0      0.0    110.1       42    230.3    230.3       84     0.000     0.000     0.000     0.000      107        0        0        0        4       20       12    17.735       73     40.4    7.171   -9.900     2.11    0.000    0.000       11        9     2076  Maize_Short_Soroca_22May_Optimum_85_MPI.PRM
  Tot(97)       22        5     2077    202.1    506.7   1427.0   733.00      0.0    196.3      5.8      0.0      0.0     92.3       39    256.1    255.6       97     0.000     0.000     0.000     0.000      107        0        0        0        5        8        2    22.078       91     40.1    8.858   -9.900     2.54    0.000    0.000       11        9     2077  Maize_Short_Soroca_22May_Optimum_85_MPI.PRM
  Tot(98)       22        5     2078    247.9    492.5   1374.4   742.00      0.0    233.5     14.4     13.3      0.0    124.8       56    250.9    251.7      100     0.000     0.000     0.000     0.000      107        0        0        0        7        2        0    22.363       96     40.0    8.953   -9.900     2.38    0.000    0.000       11        9     2078  Maize_Short_Soroca_22May_Optimum_85_MPI.PRM
  Tot(99)       22        5     2079    181.6    502.4   1243.5   750.00      0.0    160.5     21.1      7.5      0.0    109.5       49    245.6    244.8       94     0.000     0.000     0.000     0.000      107        0        0        0        9        6        4    21.193       90     40.1    8.502   -9.900     2.39    0.000    0.000       11        9     2079  Maize_Short_Soroca_22May_Optimum_85_MPI.PRM
 Tot(100)       22        5     2080    111.9    515.2   1362.2   758.00      0.0    111.5      0.4      0.0      0.0     83.7       37    239.9    240.4       90     0.000     0.000     0.000     0.000      107        0        0        0        5        7        9    19.778       83     39.9    7.898   -9.900     2.44    0.000    0.000       11        9     2080  Maize_Short_Soroca_22May_Optimum_85_MPI.PRM
 Tot(101)       22        5     2081    154.0    493.5   1345.7   767.00      0.0    153.4      0.6      0.0      0.0    109.2       51    247.9    246.9       94     0.000     0.000     0.000     0.000      107        0        0        0        7        8        4    21.351       90     40.3    8.611   -9.900     2.41    0.000    0.000       11        9     2081  Maize_Short_Soroca_22May_Optimum_85_MPI.PRM
 Tot(102)       22        5     2082     94.5    646.2   1554.4   775.00      0.0     90.4      4.1      0.0      0.0    103.3       31    205.5    207.4       78     0.000     0.000     0.000     0.000      101        0        0        0        2       19       19    13.442       55     37.6    5.057   -9.900     1.65    0.000    0.000       11        9     2082  Maize_Short_Soroca_22May_Optimum_85_MPI.PRM
 Tot(103)       22        5     2083    128.0    542.2   1440.0   784.00      0.0    127.0      1.0      0.7      0.0    120.8       48    204.6    204.6       79     0.000     0.000     0.000     0.000      107        0        0        0        5       15       17    14.844       62     39.6    5.883   -9.900     1.81    0.000    0.000       11        9     2083  Maize_Short_Soroca_22May_Optimum_85_MPI.PRM
 Tot(104)       22        5     2084    329.7    452.1   1374.8   792.00      0.0    313.0     16.7     27.3      0.0    124.7       60    225.4    224.7      100     0.000     0.000     0.000     0.000      107        0        0        0        6        1        0    22.314       96     40.0    8.929   -9.900     2.55    0.000    0.000       11        9     2084  Maize_Short_Soroca_22May_Optimum_85_MPI.PRM
 Tot(105)       22        5     2085    116.7    587.8   1419.6   801.00      0.0    115.8      0.9      0.0      0.0    114.3       41    215.0    215.3       78     0.000     0.000     0.000     0.000      107        0        0        0        5       13       18    15.226       63     39.9    6.069   -9.900     1.84    0.000    0.000       11        9     2085  Maize_Short_Soroca_22May_Optimum_85_MPI.PRM
 Tot(106)       22        5     2086    235.8    538.6   1396.0   810.00      0.0    222.1     13.7      5.5      0.0    120.5       47    268.9    266.8      100     0.000     0.000     0.000     0.000      107        0        0        0        3       17        0    21.671       90     40.4    8.762   -9.900     2.25    0.000    0.000       11        9     2086  Maize_Short_Soroca_22May_Optimum_85_MPI.PRM
 Tot(107)       22        5     2087    191.0    492.9   1325.6   818.00      0.0    184.8      6.2     17.1      0.0    125.1       56    239.7    240.6       96     0.000     0.000     0.000     0.000      107        0        0        0        8       14        4    20.761       88     40.6    8.434   -9.900     2.31    0.000    0.000       11        9     2087  Maize_Short_Soroca_22May_Optimum_85_MPI.PRM
 Tot(108)       22        5     2088    158.4    529.2   1370.4   827.00      0.0    137.5     20.9     24.9      0.0    107.1       40    210.1    210.9       87     0.000     0.000     0.000     0.000      107        0        0        0        4       21       10    17.424       74     40.6    7.080   -9.900     2.23    0.000    0.000       11        9     2088  Maize_Short_Soroca_22May_Optimum_85_MPI.PRM
 Tot(109)       22        5     2089    249.2    457.6   1258.0   836.00      0.0    238.2     11.0     14.3      0.0    113.3       64    251.4    249.9      100     0.000     0.000     0.000     0.000      107        0        0        0       10        5        0    21.869       97     40.3    8.819   -9.900     2.42    0.000    0.000       11        9     2089  Maize_Short_Soroca_22May_Optimum_85_MPI.PRM
 Tot(110)       22        5     2090     94.3    597.7   1430.7   845.00      0.0     94.2      0.1      0.0      0.0    107.8       32    185.7    187.9       81     0.000     0.000     0.000     0.000      107        0        0        0        5       26       17    12.928       53     40.4    5.224   -9.900     1.78    0.000    0.000       11        9     2090  Maize_Short_Soroca_22May_Optimum_85_MPI.PRM
 Tot(111)       22        5     2091    215.9    521.1   1391.2   854.00      0.0    207.9      8.0      0.0      0.0    107.1       47    263.3    261.2       98     0.000     0.000     0.000     0.000      107        0        0        0        5        6        1    21.973       93     40.3    8.849   -9.900     2.39    0.000    0.000       11        9     2091  Maize_Short_Soroca_22May_Optimum_85_MPI.PRM
 Tot(112)       22        5     2092    144.8    670.6   1587.1   863.00      0.0    144.5      0.3      0.0      0.0    128.1       42    239.8    242.0       75     0.000     0.000     0.000     0.000      107        0        0        0        2       13       22    14.712       61     39.0    5.740   -9.900     1.56    0.000    0.000       11        9     2092  Maize_Short_Soroca_22May_Optimum_85_MPI.PRM
 Tot(113)       22        5     2093    162.1    533.2   1445.7   872.00      0.0    158.8      3.3      0.0      0.0     89.6       38    265.9    264.9       97     0.000     0.000     0.000     0.000      107        0        0        0        3        5        2    21.862       92     40.1    8.769   -9.900     2.47    0.000    0.000       11        9     2093  Maize_Short_Soroca_22May_Optimum_85_MPI.PRM
 Tot(114)       22        5     2094    251.7    445.5   1308.5   881.00      0.0    232.6     19.1     18.8      0.0    126.2       61    217.2    215.1      100     0.000     0.000     0.000     0.000      107        0        0        0        6       10        0    22.030       94     40.5    8.927   -9.900     2.60    0.000    0.000       11        9     2094  Maize_Short_Soroca_22May_Optimum_85_MPI.PRM
 Tot(115)       22        5     2095    184.7    576.9   1496.8   890.00      0.0    180.8      3.9      0.0      0.0     89.4       27    242.4    245.3      100     0.000     0.000     0.000     0.000      107        0        0        0        3       20        0    19.462       82     40.3    7.849   -9.900     2.37    0.000    0.000       11        9     2095  Maize_Short_Soroca_22May_Optimum_85_MPI.PRM
 Tot(116)       22        5     2096    138.9    682.5   1678.0   899.00      0.0    122.7     16.2      1.2      0.0     84.0       26    259.2    258.9       82     0.000     0.000     0.000     0.000      107        0        0        0        1       10       15    16.608       69     39.3    6.532   -9.900     1.90    0.000    0.000       11        9     2096  Maize_Short_Soroca_22May_Optimum_85_MPI.PRM
 Tot(117)       22        5     2097    315.3    467.5   1378.0   908.00      0.0    286.9     28.4      0.0      0.0    109.4       46    213.2    211.7      100     0.000     0.000     0.000     0.000      107        0        0        0        5        8        0    21.518       94     40.1    8.625   -9.900     2.67    0.000    0.000       11        9     2097  Maize_Short_Soroca_22May_Optimum_85_MPI.PRM
 Tot(118)       22        5     2098    191.2    478.8   1301.1   917.00      0.0    183.1      8.1     13.2      0.0    118.7       58    242.7    243.1       98     0.000     0.000     0.000     0.000      107        0        0        0        6        5        1    22.225       94     40.2    8.924   -9.900     2.47    0.000    0.000       11        9     2098  Maize_Short_Soroca_22May_Optimum_85_MPI.PRM
 Tot(119)       22        5     2099    223.7    545.4   1462.4   927.00      0.0    212.4     11.3      0.7      0.0    117.5       48    238.1    238.3       88     0.000     0.000     0.000     0.000      107        0        0        0        4       20        8    18.407       79     40.7    7.484   -9.900     2.10    0.000    0.000       11        9     2099  Maize_Short_Soroca_22May_Optimum_85_MPI.PRM
