AquaCrop 7.0 (August 2022) - Output created on (date) : 23-11-2022   at (time) : 12:20:51

    RunNr     Day1   Month1    Year1     Rain      ETo       GD     CO2      Irri   Infilt   Runoff    Drain   Upflow        E     E/Ex       Tr      TrW   Tr/Trx    SaltIn   SaltOut    SaltUp  SaltProf     Cycle   SaltStr  FertStr  WeedStr  TempStr   ExpStr   StoStr  BioMass  Brelative   HI    Y(dry)  Y(fresh)    WPet      Bin     Bout     DayN   MonthN    YearN
                                           mm       mm  degC.day    ppm        mm       mm       mm       mm       mm       mm        %       mm       mm        %    ton/ha    ton/ha    ton/ha    ton/ha      days       %        %        %        %        %        %    ton/ha        %       %    ton/ha   ton/ha    kg/m3   ton/ha   ton/ha
   Tot(1)        6        6     1981    323.6    420.3   1169.7   340.11      0.0    268.1     55.5     55.9      0.0    129.2       64    209.4    161.9      100     0.000     0.000     0.000     0.000      107        0       42       25       19        7        0    13.652       75     40.4    5.513   -9.900     1.63    0.000    0.000       26        9     1981  Maize_Short_Soroca_6June_NonOptimum_85_NCC.PRM
   Tot(2)        6        6     1982    276.8    416.0   1171.0   341.22      0.0    237.3     39.5     48.6      0.0    148.1       82    232.7    181.3       97     0.000     0.000     0.000     0.000      107        0       42       25       12        3        3    15.472       72     40.2    6.214   -9.900     1.63    0.000    0.000       26        9     1982  Maize_Short_Soroca_6June_NonOptimum_85_NCC.PRM
   Tot(3)        6        6     1983    213.6    428.2   1169.7   342.84      0.0    208.8      4.8      6.9      0.0    121.7       64    228.0    177.0      100     0.000     0.000     0.000     0.000      107        0       42       25       13        1        0    15.114       75     40.0    6.047   -9.900     1.73    0.000    0.000       26        9     1983  Maize_Short_Soroca_6June_NonOptimum_85_NCC.PRM
   Tot(4)        6        6     1984    282.0    406.7   1061.7   344.40      0.0    268.3     13.7     12.2      0.0    154.8       87    216.6    166.7      100     0.000     0.000     0.000     0.000      107        0       42       25       20        1        0    14.959       76     40.1    5.996   -9.900     1.61    0.000    0.000       26        9     1984  Maize_Short_Soroca_6June_NonOptimum_85_NCC.PRM
   Tot(5)        6        6     1985    357.2    428.1   1082.1   345.87      0.0    308.6     48.6     56.8      0.0    145.6       82    232.9    181.8      100     0.000     0.000     0.000     0.000      107        0       42       25       23        2        1    13.876       75     40.1    5.558   -9.900     1.47    0.000    0.000       26        9     1985  Maize_Short_Soroca_6June_NonOptimum_85_NCC.PRM
   Tot(6)        6        6     1986    147.6    489.6   1212.2   347.19      0.0    146.7      0.9      0.0      0.0    114.5       49    234.2    182.3       96     0.000     0.000     0.000     0.000      107        0       42       25       17        9        5    13.337       69     40.4    5.383   -9.900     1.54    0.000    0.000       26        9     1986  Maize_Short_Soroca_6June_NonOptimum_85_NCC.PRM
   Tot(7)        6        6     1987    211.9    451.8   1159.6   348.98      0.0    206.3      5.6      6.4      0.0    114.2       50    205.0    159.0      100     0.000     0.000     0.000     0.000      107        0       42       25       17        6        0    13.458       73     40.0    5.385   -9.900     1.69    0.000    0.000       26        9     1987  Maize_Short_Soroca_6June_NonOptimum_85_NCC.PRM
   Tot(8)        6        6     1988    248.1    413.1   1202.7   351.45      0.0    238.8      9.3     15.2      0.0    134.4       71    218.9    170.8      100     0.000     0.000     0.000     0.000      107        0       42       25       16        3        0    14.566       75     40.2    5.854   -9.900     1.66    0.000    0.000       26        9     1988  Maize_Short_Soroca_6June_NonOptimum_85_NCC.PRM
   Tot(9)        6        6     1989    414.3    403.4   1141.8   352.89      0.0    339.5     74.8     37.5      0.0    122.6       65    206.5    160.3      100     0.000     0.000     0.000     0.000      107        0       42       25       16        2        0    14.420       75     40.0    5.772   -9.900     1.75    0.000    0.000       26        9     1989  Maize_Short_Soroca_6June_NonOptimum_85_NCC.PRM
  Tot(10)        6        6     1990    176.4    440.5   1094.6   354.16      0.0    167.9      8.5     13.1      0.0    123.5       60    210.7    165.4       98     0.000     0.000     0.000     0.000      107        0       42       25       20       12        2    12.780       71     40.6    5.189   -9.900     1.55    0.000    0.000       26        9     1990  Maize_Short_Soroca_6June_NonOptimum_85_NCC.PRM
  Tot(11)        6        6     1991    371.0    403.5   1213.4   355.48      0.0    322.1     48.9     40.9      0.0    147.2       75    199.8    154.2      100     0.000     0.000     0.000     0.000      107        0       42       25       13        0        0    14.871       76     40.0    5.948   -9.900     1.71    0.000    0.000       26        9     1991  Maize_Short_Soroca_6June_NonOptimum_85_NCC.PRM
  Tot(12)        6        6     1992    153.8    498.8   1261.7   356.27      0.0    153.4      0.4      0.0      0.0    126.9       53    219.7    174.7       85     0.000     0.000     0.000     0.000      107        0       42       25       15       19        8    11.527       59     40.6    4.677   -9.900     1.35    0.000    0.000       26        9     1992  Maize_Short_Soroca_6June_NonOptimum_85_NCC.PRM
  Tot(13)        6        6     1993    276.6    430.4   1056.4   356.95      0.0    234.0     42.6      0.0      0.0    116.0       57    211.2    163.3      100     0.000     0.000     0.000     0.000      107        0       42       25       23        5        0    13.556       74     40.3    5.458   -9.900     1.67    0.000    0.000       26        9     1993  Maize_Short_Soroca_6June_NonOptimum_85_NCC.PRM
  Tot(14)        6        6     1994    213.3    492.9   1309.0   358.63      0.0    170.1     43.2     19.9      0.0     89.2       35    245.3    193.4       95     0.000     0.000     0.000     0.000      107        0       42       25        7       23        3    14.550       65     40.9    5.953   -9.900     1.78    0.000    0.000       26        9     1994  Maize_Short_Soroca_6June_NonOptimum_85_NCC.PRM
  Tot(15)        6        6     1995    377.3    450.2   1246.1   360.62      0.0    331.3     46.0     26.1      0.0    119.3       55    236.5    184.6      100     0.000     0.000     0.000     0.000      107        0       42       25       13        2        0    15.025       75     40.1    6.022   -9.900     1.69    0.000    0.000       26        9     1995  Maize_Short_Soroca_6June_NonOptimum_85_NCC.PRM
  Tot(16)        6        6     1996    392.3    424.9   1100.1   362.37      0.0    340.3     52.0     22.4      0.0    133.1       61    197.5    153.4      100     0.000     0.000     0.000     0.000      107        0       42       25       24        2        0    12.915       75     40.1    5.180   -9.900     1.57    0.000    0.000       26        9     1996  Maize_Short_Soroca_6June_NonOptimum_85_NCC.PRM
  Tot(17)        6        6     1997    318.9    401.6   1109.9   363.47      0.0    300.0     18.9     23.7      0.0    142.6       74    190.5    147.8      100     0.000     0.000     0.000     0.000      107        0       42       25       19        1        0    13.839       75     40.0    5.540   -9.900     1.66    0.000    0.000       26        9     1997  Maize_Short_Soroca_6June_NonOptimum_85_NCC.PRM
  Tot(18)        6        6     1998    287.9    420.7   1171.6   366.50      0.0    270.1     17.8     35.9      0.0    126.6       70    221.8    171.5      100     0.000     0.000     0.000     0.000      107        0       42       25       20        2        0    13.914       75     40.1    5.582   -9.900     1.60    0.000    0.000       26        9     1998  Maize_Short_Soroca_6June_NonOptimum_85_NCC.PRM
  Tot(19)        6        6     1999    165.9    483.7   1378.8   368.14      0.0    165.9      0.0      0.0      0.0    116.2       46    239.8    187.0       99     0.000     0.000     0.000     0.000      107        0       42       25        7       13        1    15.460       72     40.5    6.269   -9.900     1.76    0.000    0.000       26        9     1999  Maize_Short_Soroca_6June_NonOptimum_85_NCC.PRM
  Tot(20)        6        6     2000    297.3    455.6   1161.2   369.41      0.0    282.8     14.5     20.8      0.0    148.9       68    232.4    181.5      100     0.000     0.000     0.000     0.000      107        0       42       25       20        2        0    14.446       75     40.2    5.805   -9.900     1.52    0.000    0.000       26        9     2000  Maize_Short_Soroca_6June_NonOptimum_85_NCC.PRM
  Tot(21)        6        6     2001    265.2    462.1   1291.3   371.07      0.0    251.0     14.2      4.4      0.0    148.7       72    243.1    189.8       95     0.000     0.000     0.000     0.000      107        0       42       25       12        9        3    14.378       69     40.5    5.829   -9.900     1.49    0.000    0.000       26        9     2001  Maize_Short_Soroca_6June_NonOptimum_85_NCC.PRM
  Tot(22)        6        6     2002    389.7    467.2   1321.1   373.16      0.0    352.6     37.1     42.5      0.0    111.1       45    233.9    182.1      100     0.000     0.000     0.000     0.000      107        0       42       25       11        4        0    15.029       72     40.0    6.012   -9.900     1.74    0.000    0.000       26        9     2002  Maize_Short_Soroca_6June_NonOptimum_85_NCC.PRM
  Tot(23)        6        6     2003    334.8    489.0   1220.9   375.80      0.0    285.0     49.8     63.3      0.0    133.7       57    245.9    190.9      100     0.000     0.000     0.000     0.000      107        0       42       25       15        2        0    14.754       74     40.0    5.907   -9.900     1.56    0.000    0.000       26        9     2003  Maize_Short_Soroca_6June_NonOptimum_85_NCC.PRM
  Tot(24)        6        6     2004    263.1    450.3   1178.8   377.49      0.0    242.3     20.8      9.2      0.0     93.0       39    210.9    164.2      100     0.000     0.000     0.000     0.000      107        0       42       25       15        4        0    14.536       73     40.0    5.815   -9.900     1.91    0.000    0.000       26        9     2004  Maize_Short_Soroca_6June_NonOptimum_85_NCC.PRM
  Tot(25)        6        6     2005    181.1    447.2   1239.3   379.80      0.0    175.6      5.5      8.2      0.0    113.8       56    245.0    189.7       99     0.000     0.000     0.000     0.000      107        0       42       25        9        6        1    16.028       73     40.2    6.443   -9.900     1.80    0.000    0.000       26        9     2005  Maize_Short_Soroca_6June_NonOptimum_85_NCC.PRM
  Tot(26)        6        6     2006    220.5    483.0   1237.4   381.90      0.0    215.5      5.0      0.0      0.0    107.4       46    249.8    193.9      100     0.000     0.000     0.000     0.000      107        0       42       25       11        7        0    15.455       73     40.2    6.214   -9.900     1.74    0.000    0.000       26        9     2006  Maize_Short_Soroca_6June_NonOptimum_85_NCC.PRM
  Tot(27)        6        6     2007    185.3    532.1   1314.3   383.77      0.0    181.4      3.9      0.0      0.0    105.3       34    226.3    180.0      100     0.000     0.000     0.000     0.000      107        0       42       25       13       17        0    13.562       68     40.3    5.469   -9.900     1.65    0.000    0.000       26        9     2007  Maize_Short_Soroca_6June_NonOptimum_85_NCC.PRM
  Tot(28)        6        6     2008    400.0    488.6   1252.2   385.59      0.0    330.7     69.3     52.0      0.0    121.0       50    256.1    199.7      100     0.000     0.000     0.000     0.000      107        0       42       25       15        3        0    14.463       74     40.1    5.794   -9.900     1.54    0.000    0.000       26        9     2008  Maize_Short_Soroca_6June_NonOptimum_85_NCC.PRM
  Tot(29)        6        6     2009    155.7    534.4   1353.0   387.37      0.0    154.7      1.0      0.0      0.0    147.7       53    224.3    176.7       86     0.000     0.000     0.000     0.000      107        0       42       25        8       15       15    12.455       56     40.0    4.984   -9.900     1.34    0.000    0.000       26        9     2009  Maize_Short_Soroca_6June_NonOptimum_85_NCC.PRM
  Tot(30)        6        6     2010    312.2    466.6   1338.8   389.85      0.0    287.9     24.3     41.7      0.0    138.3       65    249.8    192.8       99     0.000     0.000     0.000     0.000      107        0       42       25       13        6        1    15.023       74     40.4    6.068   -9.900     1.56    0.000    0.000       26        9     2010  Maize_Short_Soroca_6June_NonOptimum_85_NCC.PRM
  Tot(31)        6        6     2011    175.5    501.1   1309.7   391.63      0.0    172.0      3.5      3.5      0.0    141.3       61    244.8    192.0       89     0.000     0.000     0.000     0.000      107        0       42       25        8        5       12    14.120       62     39.9    5.628   -9.900     1.46    0.000    0.000       26        9     2011  Maize_Short_Soroca_6June_NonOptimum_85_NCC.PRM
  Tot(32)        6        6     2012    107.4    583.0   1401.8   393.82      0.0    105.8      1.6      3.9      0.0    104.2       29    211.3    169.0       87     0.000     0.000     0.000     0.000      107        0       42       25        7       30       13    11.070       50     40.4    4.475   -9.900     1.42    0.000    0.000       26        9     2012  Maize_Short_Soroca_6June_NonOptimum_85_NCC.PRM
  Tot(33)        6        6     2013    249.3    473.0   1269.4   396.48      0.0    231.5     17.8      0.0      0.0    130.3       53    203.7    160.1       91     0.000     0.000     0.000     0.000      107        0       42       25       13       20        4    12.786       63     40.8    5.219   -9.900     1.56    0.000    0.000       26        9     2013  Maize_Short_Soroca_6June_NonOptimum_85_NCC.PRM
  Tot(34)        6        6     2014    237.1    504.5   1302.8   398.55      0.0    217.1     20.0     22.3      0.0    105.9       46    262.6    204.1       95     0.000     0.000     0.000     0.000      107        0       42       25       11        6        5    14.973       69     40.2    6.012   -9.900     1.63    0.000    0.000       26        9     2014  Maize_Short_Soroca_6June_NonOptimum_85_NCC.PRM
  Tot(35)        6        6     2015     75.3    590.7   1405.3   402.00      0.0     75.3      0.0      0.0      0.0     96.2       25    171.2    137.6       80     0.000     0.000     0.000     0.000      102        0       42       25        7       30       17     8.367       37     39.5    3.303   -9.900     1.26    0.000    0.000       26        9     2015  Maize_Short_Soroca_6June_NonOptimum_85_NCC.PRM
  Tot(36)        6        6     2016    196.8    529.3   1373.3   404.00      0.0    193.9      2.9      1.7      0.0    155.3       59    244.0    191.8       89     0.000     0.000     0.000     0.000      107        0       42       25        9       17       12    13.390       61     40.2    5.389   -9.900     1.35    0.000    0.000       26        9     2016  Maize_Short_Soroca_6June_NonOptimum_85_NCC.PRM
  Tot(37)        6        6     2017    229.7    532.7   1347.1   407.00      0.0    222.5      7.2      1.9      0.0    147.9       56    239.4    187.2       88     0.000     0.000     0.000     0.000      107        0       42       25        8       13        9    13.453       60     40.2    5.410   -9.900     1.40    0.000    0.000       26        9     2017  Maize_Short_Soroca_6June_NonOptimum_85_NCC.PRM
  Tot(38)        6        6     2018    252.3    476.6   1408.2   410.00      0.0    239.0     13.3     15.2      0.0    141.3       69    276.6    214.7       98     0.000     0.000     0.000     0.000      107        0       42       25        7        1        2    16.813       73     40.0    6.732   -9.900     1.61    0.000    0.000       26        9     2018  Maize_Short_Soroca_6June_NonOptimum_85_NCC.PRM
  Tot(39)        6        6     2019    166.3    540.1   1376.3   413.00      0.0    163.1      3.2      4.4      0.0    138.9       51    217.0    169.8       81     0.000     0.000     0.000     0.000      107        0       42       25        9       13       17    12.046       55     39.7    4.788   -9.900     1.35    0.000    0.000       26        9     2019  Maize_Short_Soroca_6June_NonOptimum_85_NCC.PRM
  Tot(40)        6        6     2020    156.2    528.9   1194.3   416.00      0.0    153.2      3.0      2.8      0.0    156.7       59    204.9    161.5       80     0.000     0.000     0.000     0.000      102        0       42       25       14       18       18    10.533       52     39.3    4.137   -9.900     1.15    0.000    0.000       26        9     2020  Maize_Short_Soroca_6June_NonOptimum_85_NCC.PRM
  Tot(41)        6        6     2021    148.8    495.1   1196.6   419.00      0.0    147.8      1.0      0.0      0.0    140.6       59    218.9    172.5       87     0.000     0.000     0.000     0.000      107        0       42       25       14       19       14    12.382       58     40.4    4.998   -9.900     1.39    0.000    0.000       26        9     2021  Maize_Short_Soroca_6June_NonOptimum_85_NCC.PRM
  Tot(42)        6        6     2022    204.5    441.5   1081.1   422.00      0.0    191.8     12.7     26.4      0.0    130.5       68    218.6    169.7       96     0.000     0.000     0.000     0.000      107        0       42       25       21        7        4    13.447       71     40.4    5.438   -9.900     1.56    0.000    0.000       26        9     2022  Maize_Short_Soroca_6June_NonOptimum_85_NCC.PRM
  Tot(43)        6        6     2023    157.9    449.4   1003.4   425.00      0.0    153.1      4.8      5.4      0.0     89.2       38    180.3    142.0      100     0.000     0.000     0.000     0.000      107        0       42       25       25       13        0    12.432       71     40.3    5.006   -9.900     1.86    0.000    0.000       26        9     2023  Maize_Short_Soroca_6June_NonOptimum_85_NCC.PRM
  Tot(44)        6        6     2024    114.5    592.4   1316.2   428.00      0.0    113.0      1.5      0.2      0.0    132.2       37    177.9    142.4       78     0.000     0.000     0.000     0.000       96        0       42       25        7       30       18     8.182       38     32.2    2.634   -9.900     0.86    0.000    0.000       26        9     2024  Maize_Short_Soroca_6June_NonOptimum_85_NCC.PRM
  Tot(45)        6        6     2025    215.1    465.3   1188.7   431.00      0.0    205.0     10.1     21.2      0.0    170.3       77    214.4    167.4       92     0.000     0.000     0.000     0.000      107        0       42       25       14       11        6    13.798       67     40.4    5.577   -9.900     1.45    0.000    0.000       26        9     2025  Maize_Short_Soroca_6June_NonOptimum_85_NCC.PRM
  Tot(46)        6        6     2026    194.0    443.9   1041.1   435.00      0.0    187.8      6.2      8.2      0.0     91.7       42    202.2    155.1      100     0.000     0.000     0.000     0.000      107        0       42       25       21        2        0    14.475       74     40.0    5.793   -9.900     1.97    0.000    0.000       26        9     2026  Maize_Short_Soroca_6June_NonOptimum_85_NCC.PRM
  Tot(47)        6        6     2027     83.0    510.3   1111.4   438.00      0.0     82.7      0.3      0.0      0.0     87.9       32    176.8    142.7       79     0.000     0.000     0.000     0.000       99        0       42       25       16       27       17     9.150       43     36.4    3.329   -9.900     1.32    0.000    0.000       26        9     2027  Maize_Short_Soroca_6June_NonOptimum_85_NCC.PRM
  Tot(48)        6        6     2028    150.1    539.4   1261.8   442.00      0.0    148.0      2.1      1.2      0.0    138.2       50    205.5    162.0       83     0.000     0.000     0.000     0.000      107        0       42       25       14       21       11    11.289       55     40.7    4.592   -9.900     1.34    0.000    0.000       26        9     2028  Maize_Short_Soroca_6June_NonOptimum_85_NCC.PRM
  Tot(49)        6        6     2029     87.1    549.2   1176.1   445.00      0.0     87.1      0.0      0.0      0.0    105.5       33    174.2    139.3       78     0.000     0.000     0.000     0.000       96        0       42       25       12       28       18     8.565       41     33.4    2.859   -9.900     1.04    0.000    0.000       26        9     2029  Maize_Short_Soroca_6June_NonOptimum_85_NCC.PRM
  Tot(50)        6        6     2030    153.6    577.6   1324.8   449.00      0.0    136.2     17.4     13.9      0.0    108.6       30    204.8    163.6       89     0.000     0.000     0.000     0.000      107        0       42       25       11       30        8    11.185       53     40.7    4.550   -9.900     1.45    0.000    0.000       26        9     2030  Maize_Short_Soroca_6June_NonOptimum_85_NCC.PRM
  Tot(51)        6        6     2031    139.6    528.1   1157.5   452.00      0.0    136.7      2.9      3.5      0.0    139.0       53    199.1    157.8       82     0.000     0.000     0.000     0.000      107        0       42       25       19       22       16    10.515       52     40.6    4.265   -9.900     1.26    0.000    0.000       26        9     2031  Maize_Short_Soroca_6June_NonOptimum_85_NCC.PRM
  Tot(52)        6        6     2032    101.7    550.4   1227.0   456.00      0.0     99.6      2.1      1.4      0.0    104.9       32    189.1    151.7       87     0.000     0.000     0.000     0.000      107        0       42       25       19       31       10    10.007       52     40.8    4.083   -9.900     1.39    0.000    0.000       26        9     2032  Maize_Short_Soroca_6June_NonOptimum_85_NCC.PRM
  Tot(53)        6        6     2033    138.8    516.8   1200.5   460.00      0.0    137.9      0.9      0.0      0.0    113.2       46    221.5    174.0       88     0.000     0.000     0.000     0.000      107        0       42       25       16       21        8    12.481       61     40.8    5.088   -9.900     1.52    0.000    0.000       26        9     2033  Maize_Short_Soroca_6June_NonOptimum_85_NCC.PRM
  Tot(54)        6        6     2034    181.6    477.8   1149.7   464.00      0.0    172.9      8.7     16.1      0.0    124.2       51    211.0    164.8       99     0.000     0.000     0.000     0.000      107        0       42       25       19       13        1    13.954       72     40.5    5.654   -9.900     1.69    0.000    0.000       26        9     2034  Maize_Short_Soroca_6June_NonOptimum_85_NCC.PRM
  Tot(55)        6        6     2035     82.7    590.3   1331.9   468.00      0.0     82.0      0.7      0.0      0.0    102.4       31    190.0    152.0       77     0.000     0.000     0.000     0.000       97        0       42       25       11       23       19     9.058       41     30.2    2.738   -9.900     0.94    0.000    0.000       26        9     2035  Maize_Short_Soroca_6June_NonOptimum_85_NCC.PRM
  Tot(56)        6        6     2036    199.9    421.7   1028.2   472.00      0.0    195.6      4.3      7.2      0.0    139.2       69    180.2    140.2      100     0.000     0.000     0.000     0.000      107        0       42       25       27        5        0    12.811       75     40.3    5.163   -9.900     1.62    0.000    0.000       26        9     2036  Maize_Short_Soroca_6June_NonOptimum_85_NCC.PRM
  Tot(57)        6        6     2037    124.0    532.4   1329.5   476.00      0.0    122.4      1.6      0.0      0.0    112.2       42    212.0    167.1       82     0.000     0.000     0.000     0.000      107        0       42       25       11       24       12    11.696       54     40.7    4.755   -9.900     1.47    0.000    0.000       26        9     2037  Maize_Short_Soroca_6June_NonOptimum_85_NCC.PRM
  Tot(58)        6        6     2038    174.9    573.4   1405.7   481.00      0.0    167.7      7.2     11.7      0.0    155.2       51    198.8    157.0       77     0.000     0.000     0.000     0.000       96        0       42       25        3       19       19     9.765       41     33.0    3.221   -9.900     0.94    0.000    0.000       26        9     2038  Maize_Short_Soroca_6June_NonOptimum_85_NCC.PRM
  Tot(59)        6        6     2039    105.1    553.1   1258.0   485.00      0.0    105.1      0.0      0.0      0.0    107.1       36    196.4    156.2       79     0.000     0.000     0.000     0.000      107        0       42       25       11       27       19    10.477       47     40.3    4.222   -9.900     1.39    0.000    0.000       26        9     2039  Maize_Short_Soroca_6June_NonOptimum_85_NCC.PRM
  Tot(60)        6        6     2040    127.7    539.0   1259.5   489.00      0.0    126.1      1.6      3.5      0.0    116.4       41    199.7    157.9       83     0.000     0.000     0.000     0.000      107        0       42       25       13       23       12    10.988       52     40.6    4.461   -9.900     1.41    0.000    0.000       26        9     2040  Maize_Short_Soroca_6June_NonOptimum_85_NCC.PRM
  Tot(61)        6        6     2041    177.2    482.1   1212.2   494.00      0.0    168.5      8.7     32.6      0.0    135.7       66    210.8    165.9       83     0.000     0.000     0.000     0.000      107        0       42       25       14       17       16    12.256       56     40.4    4.949   -9.900     1.43    0.000    0.000       26        9     2041  Maize_Short_Soroca_6June_NonOptimum_85_NCC.PRM
  Tot(62)        6        6     2042     64.7    684.1   1516.3   499.00      0.0     64.7      0.0      0.0      0.0     90.9       18    156.1    128.0       81     0.000     0.000     0.000     0.000      107        0       42       25        8       38       13     6.823       30     40.6    2.773   -9.900     1.12    0.000    0.000       26        9     2042  Maize_Short_Soroca_6June_NonOptimum_85_NCC.PRM
  Tot(63)        6        6     2043    121.9    529.6   1308.0   504.00      0.0    121.2      0.7      0.0      0.0    101.1       40    230.5    180.8       86     0.000     0.000     0.000     0.000      107        0       42       25       13       11       14    12.857       57     40.0    5.148   -9.900     1.55    0.000    0.000       26        9     2043  Maize_Short_Soroca_6June_NonOptimum_85_NCC.PRM
  Tot(64)        6        6     2044    273.3    442.5   1074.4   508.00      0.0    233.8     39.5     29.5      0.0    123.6       61    209.2    162.6       98     0.000     0.000     0.000     0.000      107        0       42       25       24       12        1    13.321       73     40.6    5.411   -9.900     1.63    0.000    0.000       26        9     2044  Maize_Short_Soroca_6June_NonOptimum_85_NCC.PRM
  Tot(65)        6        6     2045    108.2    522.0   1201.4   513.00      0.0    107.4      0.8      0.0      0.0    101.2       38    199.5    158.7       87     0.000     0.000     0.000     0.000      107        0       42       25       16       24       10    11.276       56     40.7    4.593   -9.900     1.53    0.000    0.000       26        9     2045  Maize_Short_Soroca_6June_NonOptimum_85_NCC.PRM
  Tot(66)        6        6     2046    167.5    533.5   1355.3   519.00      0.0    166.7      0.8      0.0      0.0    132.4       50    219.6    172.3       86     0.000     0.000     0.000     0.000      107        0       42       25       11       14       10    12.964       59     40.2    5.207   -9.900     1.48    0.000    0.000       26        9     2046  Maize_Short_Soroca_6June_NonOptimum_85_NCC.PRM
  Tot(67)        6        6     2047    142.8    476.5   1170.8   524.00      0.0    141.7      1.1      1.9      0.0    125.6       59    214.2    167.4       90     0.000     0.000     0.000     0.000      107        0       42       25       18       10        9    13.072       64     40.3    5.272   -9.900     1.55    0.000    0.000       26        9     2047  Maize_Short_Soroca_6June_NonOptimum_85_NCC.PRM
  Tot(68)        6        6     2048    186.7    564.3   1346.5   529.00      0.0    146.9     39.8     55.2      0.0    117.2       38    181.2    144.1       77     0.000     0.000     0.000     0.000       93        0       42       25        8       25       20     9.034       38     30.0    2.713   -9.900     0.92    0.000    0.000       26        9     2048  Maize_Short_Soroca_6June_NonOptimum_85_NCC.PRM
  Tot(69)        6        6     2049    162.1    492.2   1156.0   535.00      0.0    150.3     11.8     18.8      0.0    109.3       50    227.8    177.2       92     0.000     0.000     0.000     0.000      107        0       42       25       16        7        9    14.146       66     40.2    5.680   -9.900     1.68    0.000    0.000       26        9     2049  Maize_Short_Soroca_6June_NonOptimum_85_NCC.PRM
  Tot(70)        6        6     2050    149.2    445.5   1135.2   541.00      0.0    147.8      1.4      4.1      0.0    107.4       51    209.6    163.5       96     0.000     0.000     0.000     0.000      107        0       42       25       15       10        3    14.473       70     40.3    5.839   -9.900     1.84    0.000    0.000       26        9     2050  Maize_Short_Soroca_6June_NonOptimum_85_NCC.PRM
  Tot(71)        6        6     2051    250.5    408.8   1118.4   546.00      0.0    233.7     16.8     22.5      0.0    128.9       68    196.3    150.5      100     0.000     0.000     0.000     0.000      107        0       42       25       16        1        0    15.788       75     40.0    6.316   -9.900     1.94    0.000    0.000       26        9     2051  Maize_Short_Soroca_6June_NonOptimum_85_NCC.PRM
  Tot(72)        6        6     2052    130.5    611.7   1480.3   552.00      0.0    126.2      4.3      7.9      0.0    121.5       38    212.1    168.7       77     0.000     0.000     0.000     0.000       99        0       42       25        3       17       19    10.566       43     35.8    3.783   -9.900     1.14    0.000    0.000       26        9     2052  Maize_Short_Soroca_6June_NonOptimum_85_NCC.PRM
  Tot(73)        6        6     2053    274.7    463.4   1249.2   558.00      0.0    242.0     32.7      0.0      0.0    134.8       64    233.3    182.0       96     0.000     0.000     0.000     0.000      107        0       42       25       11       12        3    15.489       69     40.6    6.289   -9.900     1.71    0.000    0.000       26        9     2053  Maize_Short_Soroca_6June_NonOptimum_85_NCC.PRM
  Tot(74)        6        6     2054    139.0    531.7   1328.3   564.00      0.0    136.9      2.1      1.2      0.0    127.6       49    212.3    167.8       82     0.000     0.000     0.000     0.000      107        0       42       25        9       20       13    12.385       54     40.4    5.006   -9.900     1.47    0.000    0.000       26        9     2054  Maize_Short_Soroca_6June_NonOptimum_85_NCC.PRM
  Tot(75)        6        6     2055    163.5    478.2   1155.1   571.00      0.0    161.0      2.5      4.0      0.0    144.9       64    213.5    166.9       94     0.000     0.000     0.000     0.000      107        0       42       25       18       11        7    13.912       67     40.5    5.633   -9.900     1.57    0.000    0.000       26        9     2055  Maize_Short_Soroca_6June_NonOptimum_85_NCC.PRM
  Tot(76)        6        6     2056    134.7    620.4   1498.4   577.00      0.0    129.8      4.9     12.5      0.0    124.4       32    173.0    139.7       78     0.000     0.000     0.000     0.000      107        0       42       25        7       34       13     8.439       37     27.6    2.333   -9.900     0.78    0.000    0.000       26        9     2056  Maize_Short_Soroca_6June_NonOptimum_85_NCC.PRM
  Tot(77)        6        6     2057     96.6    545.1   1347.0   583.00      0.0     95.4      1.2      4.6      0.0    108.4       38    194.7    154.3       79     0.000     0.000     0.000     0.000      101        0       42       25        8       20       18    10.669       46     38.1    4.065   -9.900     1.35    0.000    0.000       26        9     2057  Maize_Short_Soroca_6June_NonOptimum_85_NCC.PRM
  Tot(78)        6        6     2058     53.8    585.2   1351.8   590.00      0.0     51.1      2.7      4.3      0.0     77.9       23    169.8    135.5       75     0.000     0.000     0.000     0.000       90        0       42       25        6       29       19     7.999       34     27.3    2.188   -9.900     0.89    0.000    0.000       26        9     2058  Maize_Short_Soroca_6June_NonOptimum_85_NCC.PRM
  Tot(79)        6        6     2059     77.5    634.5   1468.4   597.00      0.0     77.5      0.0      0.0      0.0    102.6       24    163.5    132.6       80     0.000     0.000     0.000     0.000      107        0       42       25        6       36       15     7.956       34     40.6    3.229   -9.900     1.21    0.000    0.000       26        9     2059  Maize_Short_Soroca_6June_NonOptimum_85_NCC.PRM
  Tot(80)        6        6     2060    168.8    437.9   1084.4   604.00      0.0    166.7      2.1      0.0      0.0     96.4       51    223.0    172.5      100     0.000     0.000     0.000     0.000      107        0       42       25       17        5        0    15.841       75     40.3    6.377   -9.900     2.00    0.000    0.000       26        9     2060  Maize_Short_Soroca_6June_NonOptimum_85_NCC.PRM
  Tot(81)        6        6     2061    116.8    511.9   1292.3   611.00      0.0    112.8      4.0     11.4      0.0    115.3       44    189.2    150.4       81     0.000     0.000     0.000     0.000      107        0       42       25       11       21       16    11.165       49     40.5    4.520   -9.900     1.48    0.000    0.000       26        9     2061  Maize_Short_Soroca_6June_NonOptimum_85_NCC.PRM
  Tot(82)        6        6     2062    167.2    555.2   1321.1   618.00      0.0    165.0      2.2      0.5      0.0    120.7       46    243.6    190.0       89     0.000     0.000     0.000     0.000      107        0       42       25       13       12        8    14.020       64     40.4    5.669   -9.900     1.56    0.000    0.000       26        9     2062  Maize_Short_Soroca_6June_NonOptimum_85_NCC.PRM
  Tot(83)        6        6     2063     54.7    606.9   1394.0   625.00      0.0     54.7      0.0      0.0      0.0     84.3       24    177.2    141.7       74     0.000     0.000     0.000     0.000       95        0       42       25        3       27       19     8.895       37     31.8    2.833   -9.900     1.12    0.000    0.000       26        9     2063  Maize_Short_Soroca_6June_NonOptimum_85_NCC.PRM
  Tot(84)        6        6     2064     92.9    573.5   1450.8   632.00      0.0     92.9      0.0      0.0      0.0     93.6       32    211.0    167.1       78     0.000     0.000     0.000     0.000      107        0       42       25        6       23       16    11.929       49     40.4    4.818   -9.900     1.58    0.000    0.000       26        9     2064  Maize_Short_Soroca_6June_NonOptimum_85_NCC.PRM
  Tot(85)        6        6     2065    156.2    610.3   1513.6   639.00      0.0    134.0     22.2     26.1      0.0    128.6       39    190.6    151.1       77     0.000     0.000     0.000     0.000       95        0       42       25        2       22       20     9.713       39     31.9    3.101   -9.900     0.98    0.000    0.000       26        9     2065  Maize_Short_Soroca_6June_NonOptimum_85_NCC.PRM
  Tot(86)        6        6     2066     59.7    621.8   1497.8   647.00      0.0     59.4      0.3      0.0      0.0     85.2       22    181.3    145.2       81     0.000     0.000     0.000     0.000      102        0       42       25        3       30       17     9.579       40     39.4    3.778   -9.900     1.42    0.000    0.000       26        9     2066  Maize_Short_Soroca_6June_NonOptimum_85_NCC.PRM
  Tot(87)        6        6     2067    133.3    637.1   1539.2   654.00      0.0    128.2      5.1      0.0      0.0    105.2       25    178.4    144.0       81     0.000     0.000     0.000     0.000      107        0       42       25        7       32       12     9.100       39     40.6    3.694   -9.900     1.30    0.000    0.000       26        9     2067  Maize_Short_Soroca_6June_NonOptimum_85_NCC.PRM
  Tot(88)        6        6     2068    141.9    533.1   1356.0   662.00      0.0    128.6     13.3     22.6      0.0    126.5       46    192.3    151.7       82     0.000     0.000     0.000     0.000      103        0       42       25        7       18       18    11.370       48     40.1    4.557   -9.900     1.45    0.000    0.000       26        9     2068  Maize_Short_Soroca_6June_NonOptimum_85_NCC.PRM
  Tot(89)        6        6     2069    217.9    423.9   1133.0   669.00      0.0    200.9     17.0     23.3      0.0     98.0       51    205.7    159.7      100     0.000     0.000     0.000     0.000      107        0       42       25       14        2        0    16.162       75     40.0    6.465   -9.900     2.13    0.000    0.000       26        9     2069  Maize_Short_Soroca_6June_NonOptimum_85_NCC.PRM
  Tot(90)        6        6     2070    109.7    552.8   1370.4   677.00      0.0    108.4      1.3      2.6      0.0     98.8       38    207.5    163.6       78     0.000     0.000     0.000     0.000      107        0       42       25       10       21       16    11.392       51     40.3    4.587   -9.900     1.50    0.000    0.000       26        9     2070  Maize_Short_Soroca_6June_NonOptimum_85_NCC.PRM
  Tot(91)        6        6     2071    164.6    555.1   1450.7   685.00      0.0    161.2      3.4      1.0      0.0    132.6       45    212.2    167.8       84     0.000     0.000     0.000     0.000      107        0       42       25        7       26       12    12.275       52     40.5    4.977   -9.900     1.44    0.000    0.000       26        9     2071  Maize_Short_Soroca_6June_NonOptimum_85_NCC.PRM
  Tot(92)        6        6     2072    218.9    488.1   1349.4   693.00      0.0    214.9      4.0      3.4      0.0    141.2       63    247.8    192.2      100     0.000     0.000     0.000     0.000      107        0       42       25        8        6        0    17.139       74     40.3    6.902   -9.900     1.77    0.000    0.000       26        9     2072  Maize_Short_Soroca_6June_NonOptimum_85_NCC.PRM
  Tot(93)        6        6     2073    146.7    582.6   1460.7   701.00      0.0    140.3      6.4     10.0      0.0    122.1       40    210.1    168.6       80     0.000     0.000     0.000     0.000      107        0       42       25        6       28       14    11.494       48     40.6    4.666   -9.900     1.40    0.000    0.000       26        9     2073  Maize_Short_Soroca_6June_NonOptimum_85_NCC.PRM
  Tot(94)        6        6     2074    162.5    630.7   1582.9   709.00      0.0    161.0      1.5      0.7      0.0    151.2       43    221.5    176.3       83     0.000     0.000     0.000     0.000      107        0       42       25        5       26       15    11.968       50     40.5    4.841   -9.900     1.30    0.000    0.000       26        9     2074  Maize_Short_Soroca_6June_NonOptimum_85_NCC.PRM
  Tot(95)        6        6     2075    129.9    559.3   1374.1   717.00      0.0    128.5      1.4      0.0      0.0     86.3       30    239.3    187.1       93     0.000     0.000     0.000     0.000      107        0       42       25        6       13        5    15.124       65     40.4    6.106   -9.900     1.88    0.000    0.000       26        9     2075  Maize_Short_Soroca_6June_NonOptimum_85_NCC.PRM
  Tot(96)        6        6     2076    155.3    521.1   1418.5   725.00      0.0    147.1      8.2      8.2      0.0    144.7       57    204.6    161.5       84     0.000     0.000     0.000     0.000      107        0       42       25        6       18       16    12.259       52     40.4    4.952   -9.900     1.42    0.000    0.000       26        9     2076  Maize_Short_Soroca_6June_NonOptimum_85_NCC.PRM
  Tot(97)        6        6     2077     91.4    597.1   1499.6   733.00      0.0     90.8      0.6      0.0      0.0    110.0       31    174.6    139.9       78     0.000     0.000     0.000     0.000      107        0       42       25        5       30       17     8.791       37     40.4    3.553   -9.900     1.25    0.000    0.000       26        9     2077  Maize_Short_Soroca_6June_NonOptimum_85_NCC.PRM
  Tot(98)        6        6     2078     77.1    636.3   1544.5   742.00      0.0     77.0      0.1      0.0      0.0    102.0       26    166.0    133.7       75     0.000     0.000     0.000     0.000      100        0       42       25        7       31       17     7.883       35     36.3    2.862   -9.900     1.08    0.000    0.000       26        9     2078  Maize_Short_Soroca_6June_NonOptimum_85_NCC.PRM
  Tot(99)        6        6     2079    126.8    515.6   1390.0   750.00      0.0    126.8      0.0      0.0      0.0    112.7       48    230.5    180.1       88     0.000     0.000     0.000     0.000      107        0       42       25        8       11       11    14.898       63     40.1    5.969   -9.900     1.74    0.000    0.000       26        9     2079  Maize_Short_Soroca_6June_NonOptimum_85_NCC.PRM
 Tot(100)        6        6     2080    117.9    504.2   1339.2   758.00      0.0    115.0      2.9      0.2      0.0     90.1       34    217.9    170.7       95     0.000     0.000     0.000     0.000      107        0       42       25        6       17        3    15.476       67     40.6    6.281   -9.900     2.04    0.000    0.000       26        9     2080  Maize_Short_Soroca_6June_NonOptimum_85_NCC.PRM
 Tot(101)        6        6     2081     82.1    599.0   1417.9   767.00      0.0     81.9      0.2      0.0      0.0     78.5       21    186.4    150.6       86     0.000     0.000     0.000     0.000      107        0       42       25       11       33        8    10.384       48     40.8    4.234   -9.900     1.60    0.000    0.000       26        9     2081  Maize_Short_Soroca_6June_NonOptimum_85_NCC.PRM
 Tot(102)        6        6     2082    301.1    438.9   1319.5   775.00      0.0    262.1     39.0      9.0      0.0    115.0       56    211.1    165.2      100     0.000     0.000     0.000     0.000      107        0       42       25        9        5        0    16.596       74     40.0    6.646   -9.900     2.04    0.000    0.000       26        9     2082  Maize_Short_Soroca_6June_NonOptimum_85_NCC.PRM
 Tot(103)        6        6     2083    198.5    549.8   1453.2   784.00      0.0    196.9      1.6      0.0      0.0    180.8       70    228.2    179.3       86     0.000     0.000     0.000     0.000      107        0       42       25        7       18       15    13.155       58     40.4    5.309   -9.900     1.30    0.000    0.000       26        9     2083  Maize_Short_Soroca_6June_NonOptimum_85_NCC.PRM
 Tot(104)        6        6     2084    145.3    525.4   1450.4   792.00      0.0    135.7      9.6      0.0      0.0     78.6       32    255.3    197.5       97     0.000     0.000     0.000     0.000      107        0       42       25        3        5        3    16.728       70     40.0    6.693   -9.900     2.00    0.000    0.000       26        9     2084  Maize_Short_Soroca_6June_NonOptimum_85_NCC.PRM
 Tot(105)        6        6     2085     62.9    677.9   1655.2   801.00      0.0     62.9      0.0      0.0      0.0     91.2       20    174.0    141.1       81     0.000     0.000     0.000     0.000      107        0       42       25        3       35       13     9.566       40     24.9    2.387   -9.900     0.90    0.000    0.000       26        9     2085  Maize_Short_Soroca_6June_NonOptimum_85_NCC.PRM
 Tot(106)        6        6     2086    209.9    519.8   1331.3   810.00      0.0    178.9     31.0      1.7      0.0    113.0       45    209.9    163.9       88     0.000     0.000     0.000     0.000      107        0       42       25       11        9        7    13.223       63     40.3    5.325   -9.900     1.65    0.000    0.000       26        9     2086  Maize_Short_Soroca_6June_NonOptimum_85_NCC.PRM
 Tot(107)        6        6     2087    128.5    543.0   1412.7   818.00      0.0    114.3     14.2     17.0      0.0    115.5       44    196.0    154.5       80     0.000     0.000     0.000     0.000      103        0       42       25        6       15       18    11.312       48     39.9    4.512   -9.900     1.47    0.000    0.000       26        9     2087  Maize_Short_Soroca_6June_NonOptimum_85_NCC.PRM
 Tot(108)        6        6     2088     84.2    639.7   1596.4   827.00      0.0     84.0      0.2      0.0      0.0    115.3       27    171.1    138.6       83     0.000     0.000     0.000     0.000      104        0       42       25        5       32       16     8.971       40     40.5    3.635   -9.900     1.28    0.000    0.000       26        9     2088  Maize_Short_Soroca_6June_NonOptimum_85_NCC.PRM
 Tot(109)        6        6     2089     81.8    696.8   1631.5   836.00      0.0     81.8      0.0      0.0      0.0    114.2       25    170.8    137.8       78     0.000     0.000     0.000     0.000       97        0       42       25        2       32       18     8.133       34     34.2    2.783   -9.900     0.98    0.000    0.000       26        9     2089  Maize_Short_Soroca_6June_NonOptimum_85_NCC.PRM
 Tot(110)        6        6     2090     95.6    584.2   1490.2   845.00      0.0     95.6      0.0      0.0      0.0    124.2       37    173.6    138.4       80     0.000     0.000     0.000     0.000      101        0       42       25        3       28       17     9.465       41     38.4    3.636   -9.900     1.23    0.000    0.000       26        9     2090  Maize_Short_Soroca_6June_NonOptimum_85_NCC.PRM
 Tot(111)        6        6     2091    164.7    538.5   1573.5   854.00      0.0    157.8      6.9      7.4      0.0    120.1       53    248.5    192.8       87     0.000     0.000     0.000     0.000      107        0       42       25        2        8       11    15.071       62     40.1    6.038   -9.900     1.64    0.000    0.000       26        9     2091  Maize_Short_Soroca_6June_NonOptimum_85_NCC.PRM
 Tot(112)        6        6     2092    266.4    581.4   1519.6   863.00      0.0    221.6     44.8      9.9      0.0    140.9       46    188.3    149.8       77     0.000     0.000     0.000     0.000      107        0       42       25        6       24       13    10.147       45     39.1    3.967   -9.900     1.21    0.000    0.000       26        9     2092  Maize_Short_Soroca_6June_NonOptimum_85_NCC.PRM
 Tot(113)        6        6     2093    208.4    605.2   1650.5   872.00      0.0    186.1     22.3     33.2      0.0    157.4       50    192.1    152.8       77     0.000     0.000     0.000     0.000      107        0       42       25        2       25       16    10.026       42     40.4    4.046   -9.900     1.16    0.000    0.000       26        9     2093  Maize_Short_Soroca_6June_NonOptimum_85_NCC.PRM
 Tot(114)        6        6     2094    186.9    569.4   1541.0   881.00      0.0    181.3      5.6      0.0      0.0    126.8       46    254.9    198.9       96     0.000     0.000     0.000     0.000      107        0       42       25        5        8        5    15.556       69     40.3    6.271   -9.900     1.64    0.000    0.000       26        9     2094  Maize_Short_Soroca_6June_NonOptimum_85_NCC.PRM
 Tot(115)        6        6     2095    184.0    576.2   1479.6   890.00      0.0    176.9      7.1      8.9      0.0    116.3       43    229.1    180.6       87     0.000     0.000     0.000     0.000      107        0       42       25       10       20        7    12.628       59     40.7    5.142   -9.900     1.49    0.000    0.000       26        9     2095  Maize_Short_Soroca_6June_NonOptimum_85_NCC.PRM
 Tot(116)        6        6     2096    163.1    628.8   1608.2   899.00      0.0    153.1     10.0     11.8      0.0    163.3       44    170.9    136.8       77     0.000     0.000     0.000     0.000       97        0       42       25        1       29       18     8.317       36     34.3    2.853   -9.900     0.88    0.000    0.000       26        9     2096  Maize_Short_Soroca_6June_NonOptimum_85_NCC.PRM
 Tot(117)        6        6     2097    135.3    619.8   1488.7   908.00      0.0    132.9      2.4      4.3      0.0    132.0       40    206.4    162.8       84     0.000     0.000     0.000     0.000      107        0       42       25        9       16       17    11.241       53     39.9    4.489   -9.900     1.33    0.000    0.000       26        9     2097  Maize_Short_Soroca_6June_NonOptimum_85_NCC.PRM
 Tot(118)        6        6     2098     99.2    638.8   1691.1   917.00      0.0     96.8      2.4      0.0      0.0    113.0       31    185.1    147.8       79     0.000     0.000     0.000     0.000       96        0       42       25        1       28       18     9.010       38     29.2    2.627   -9.900     0.90    0.000    0.000       26        9     2098  Maize_Short_Soroca_6June_NonOptimum_85_NCC.PRM
 Tot(119)        6        6     2099    121.2    542.8   1480.9   927.00      0.0    120.8      0.4      0.0      0.0    125.9       51    209.6    164.2       83     0.000     0.000     0.000     0.000      107        0       42       25        3       17       17    11.975       51     40.2    4.816   -9.900     1.44    0.000    0.000       26        9     2099  Maize_Short_Soroca_6June_NonOptimum_85_NCC.PRM
