AquaCrop 7.0 (August 2022) - Output created on (date) : 23-11-2022   at (time) : 12:01:16

    RunNr     Day1   Month1    Year1     Rain      ETo       GD     CO2      Irri   Infilt   Runoff    Drain   Upflow        E     E/Ex       Tr      TrW   Tr/Trx    SaltIn   SaltOut    SaltUp  SaltProf     Cycle   SaltStr  FertStr  WeedStr  TempStr   ExpStr   StoStr  BioMass  Brelative   HI    Y(dry)  Y(fresh)    WPet      Bin     Bout     DayN   MonthN    YearN
                                           mm       mm  degC.day    ppm        mm       mm       mm       mm       mm       mm        %       mm       mm        %    ton/ha    ton/ha    ton/ha    ton/ha      days       %        %        %        %        %        %    ton/ha        %       %    ton/ha   ton/ha    kg/m3   ton/ha   ton/ha
   Tot(1)        6        6     1981    199.9    451.3   1202.5   340.11      0.0    168.9     31.0      0.0      0.0     98.0       45    218.0    169.3       95     0.000     0.000     0.000     0.000      107        0       42       25       17       16        2    13.099       69     40.8    5.349   -9.900     1.69    0.000    0.000       26        9     1981  Maize_short_Chisinau_6June_NonOptimum_85_MPI.PRM
   Tot(2)        6        6     1982    192.1    427.5   1217.6   341.22      0.0    191.6      0.5      0.0      0.0    140.8       75    245.0    190.5       99     0.000     0.000     0.000     0.000      107        0       42       25       10        1        1    16.210       74     40.1    6.500   -9.900     1.68    0.000    0.000       26        9     1982  Maize_short_Chisinau_6June_NonOptimum_85_MPI.PRM
   Tot(3)        6        6     1983    262.8    443.0   1188.8   342.84      0.0    240.7     22.1     39.3      0.0    123.0       64    240.7    186.9      100     0.000     0.000     0.000     0.000      107        0       42       25       12        2        0    15.370       75     40.0    6.150   -9.900     1.69    0.000    0.000       26        9     1983  Maize_short_Chisinau_6June_NonOptimum_85_MPI.PRM
   Tot(4)        6        6     1984    184.6    423.3   1101.0   344.40      0.0    181.4      3.2      7.2      0.0    136.9       71    220.8    170.5       99     0.000     0.000     0.000     0.000      107        0       42       25       16        6        1    15.077       74     40.3    6.076   -9.900     1.70    0.000    0.000       26        9     1984  Maize_short_Chisinau_6June_NonOptimum_85_MPI.PRM
   Tot(5)        6        6     1985    281.0    437.5   1120.2   345.87      0.0    247.3     33.7     63.0      0.0    137.1       76    236.2    184.7       97     0.000     0.000     0.000     0.000      107        0       42       25       20        4        2    13.912       73     40.2    5.592   -9.900     1.50    0.000    0.000       26        9     1985  Maize_short_Chisinau_6June_NonOptimum_85_MPI.PRM
   Tot(6)        6        6     1986    165.0    499.0   1263.3   347.19      0.0    162.3      2.7      5.9      0.0    118.1       52    247.8    192.8       93     0.000     0.000     0.000     0.000      107        0       42       25       13        7        8    13.743       67     40.2    5.527   -9.900     1.51    0.000    0.000       26        9     1986  Maize_short_Chisinau_6June_NonOptimum_85_MPI.PRM
   Tot(7)        6        6     1987    220.8    477.8   1198.4   348.98      0.0    212.1      8.7     13.2      0.0    114.5       50    234.2    181.1      100     0.000     0.000     0.000     0.000      107        0       42       25       15        5        0    14.236       75     40.2    5.719   -9.900     1.64    0.000    0.000       26        9     1987  Maize_short_Chisinau_6June_NonOptimum_85_MPI.PRM
   Tot(8)        6        6     1988    230.8    451.7   1243.1   351.45      0.0    200.8     30.0      1.9      0.0    101.3       48    241.5    188.8       99     0.000     0.000     0.000     0.000      107        0       42       25       14        9        0    14.703       73     40.5    5.954   -9.900     1.74    0.000    0.000       26        9     1988  Maize_short_Chisinau_6June_NonOptimum_85_MPI.PRM
   Tot(9)        6        6     1989    317.2    425.1   1179.8   352.89      0.0    284.4     32.8     13.0      0.0    118.7       59    221.5    172.2      100     0.000     0.000     0.000     0.000      107        0       42       25       14        2        0    14.847       75     40.1    5.948   -9.900     1.75    0.000    0.000       26        9     1989  Maize_short_Chisinau_6June_NonOptimum_85_MPI.PRM
  Tot(10)        6        6     1990    132.3    476.7   1149.2   354.16      0.0    130.1      2.2      3.3      0.0    118.7       50    204.5    161.3       91     0.000     0.000     0.000     0.000      107        0       42       25       17       14       10    11.760       62     40.5    4.758   -9.900     1.47    0.000    0.000       26        9     1990  Maize_short_Chisinau_6June_NonOptimum_85_MPI.PRM
  Tot(11)        6        6     1991    275.4    418.6   1253.8   355.48      0.0    261.5     13.9     18.7      0.0    129.6       66    218.7    169.0      100     0.000     0.000     0.000     0.000      107        0       42       25       11        1        0    15.257       75     40.0    6.105   -9.900     1.75    0.000    0.000       26        9     1991  Maize_short_Chisinau_6June_NonOptimum_85_MPI.PRM
  Tot(12)        6        6     1992    150.7    509.8   1276.3   356.27      0.0    145.6      5.1     13.2      0.0    120.0       50    218.1    173.2       83     0.000     0.000     0.000     0.000      107        0       42       25       13       19       15    11.171       55     40.5    4.524   -9.900     1.34    0.000    0.000       26        9     1992  Maize_short_Chisinau_6June_NonOptimum_85_MPI.PRM
  Tot(13)        6        6     1993    182.1    473.1   1085.2   356.95      0.0    180.2      1.9      0.0      0.0    113.6       50    223.8    173.6       97     0.000     0.000     0.000     0.000      107        0       42       25       21       12        1    13.129       71     40.6    5.328   -9.900     1.58    0.000    0.000       26        9     1993  Maize_short_Chisinau_6June_NonOptimum_85_MPI.PRM
  Tot(14)        6        6     1994    231.2    503.3   1362.6   358.63      0.0    182.4     48.8     16.1      0.0     83.3       33    262.5    206.0       97     0.000     0.000     0.000     0.000      107        0       42       25        4       21        2    15.529       68     40.9    6.354   -9.900     1.84    0.000    0.000       26        9     1994  Maize_short_Chisinau_6June_NonOptimum_85_MPI.PRM
  Tot(15)        6        6     1995    234.6    464.0   1267.5   360.62      0.0    221.2     13.4      0.0      0.0    105.9       47    237.4    186.1      100     0.000     0.000     0.000     0.000      107        0       42       25       12        6        0    14.894       74     40.3    6.002   -9.900     1.75    0.000    0.000       26        9     1995  Maize_short_Chisinau_6June_NonOptimum_85_MPI.PRM
  Tot(16)        6        6     1996    265.4    465.3   1136.8   362.37      0.0    227.9     37.5      0.0      0.0     93.6       35    193.4    151.9       99     0.000     0.000     0.000     0.000      107        0       42       25       23       17        0    12.330       70     40.7    5.021   -9.900     1.75    0.000    0.000       26        9     1996  Maize_short_Chisinau_6June_NonOptimum_85_MPI.PRM
  Tot(17)        6        6     1997    315.0    407.4   1143.8   363.47      0.0    294.3     20.7      7.2      0.0    131.8       67    192.3    149.5      100     0.000     0.000     0.000     0.000      107        0       42       25       17        1        0    14.118       75     40.0    5.647   -9.900     1.74    0.000    0.000       26        9     1997  Maize_short_Chisinau_6June_NonOptimum_85_MPI.PRM
  Tot(18)        6        6     1998    223.6    463.9   1226.6   366.50      0.0    217.1      6.5      0.0      0.0    129.6       63    237.8    184.4       97     0.000     0.000     0.000     0.000      107        0       42       25       16        9        2    13.879       71     40.6    5.628   -9.900     1.53    0.000    0.000       26        9     1998  Maize_short_Chisinau_6June_NonOptimum_85_MPI.PRM
  Tot(19)        6        6     1999    153.2    491.5   1394.7   368.14      0.0    151.2      2.0      1.9      0.0    114.9       46    237.4    186.0       95     0.000     0.000     0.000     0.000      107        0       42       25        7       15        5    14.664       68     40.5    5.939   -9.900     1.69    0.000    0.000       26        9     1999  Maize_short_Chisinau_6June_NonOptimum_85_MPI.PRM
  Tot(20)        6        6     2000    210.5    500.1   1200.6   369.41      0.0    203.8      6.7      0.0      0.0     93.1       37    248.7    194.4       99     0.000     0.000     0.000     0.000      107        0       42       25       18        7        0    14.336       73     40.3    5.781   -9.900     1.69    0.000    0.000       26        9     2000  Maize_short_Chisinau_6June_NonOptimum_85_MPI.PRM
  Tot(21)        6        6     2001    206.9    490.4   1341.7   371.07      0.0    193.1     13.8      1.1      0.0    112.9       49    231.8    182.2       89     0.000     0.000     0.000     0.000      107        0       42       25        9       17        7    13.189       61     40.7    5.364   -9.900     1.56    0.000    0.000       26        9     2001  Maize_short_Chisinau_6June_NonOptimum_85_MPI.PRM
  Tot(22)        6        6     2002    290.9    484.3   1361.3   373.16      0.0    261.3     29.6     17.0      0.0     92.9       37    246.0    191.1      100     0.000     0.000     0.000     0.000      107        0       42       25        8        4        0    15.735       73     40.0    6.294   -9.900     1.86    0.000    0.000       26        9     2002  Maize_short_Chisinau_6June_NonOptimum_85_MPI.PRM
  Tot(23)        6        6     2003    217.4    513.0   1265.0   375.80      0.0    213.7      3.7      0.0      0.0    117.9       48    262.4    204.0      100     0.000     0.000     0.000     0.000      107        0       42       25       13        3        0    15.257       74     40.1    6.120   -9.900     1.61    0.000    0.000       26        9     2003  Maize_short_Chisinau_6June_NonOptimum_85_MPI.PRM
  Tot(24)        6        6     2004    185.9    481.7   1215.0   377.49      0.0    178.0      7.9     18.8      0.0     87.9       36    237.4    184.1      100     0.000     0.000     0.000     0.000      107        0       42       25       12        5        0    15.117       74     40.2    6.077   -9.900     1.87    0.000    0.000       26        9     2004  Maize_short_Chisinau_6June_NonOptimum_85_MPI.PRM
  Tot(25)        6        6     2005    243.9    464.2   1283.3   379.80      0.0    230.6     13.3     16.9      0.0    122.7       58    259.9    201.0      100     0.000     0.000     0.000     0.000      107        0       42       25        7        7        0    16.529       74     40.2    6.646   -9.900     1.74    0.000    0.000       26        9     2005  Maize_short_Chisinau_6June_NonOptimum_85_MPI.PRM
  Tot(26)        6        6     2006    224.5    508.3   1271.8   381.90      0.0    219.8      4.7      9.9      0.0    115.6       47    268.5    209.8      100     0.000     0.000     0.000     0.000      107        0       42       25        9        9        0    15.872       73     40.3    6.391   -9.900     1.66    0.000    0.000       26        9     2006  Maize_short_Chisinau_6June_NonOptimum_85_MPI.PRM
  Tot(27)        6        6     2007    158.6    581.7   1358.0   383.77      0.0    158.1      0.5      0.0      0.0    110.8       32    235.1    188.2       95     0.000     0.000     0.000     0.000      107        0       42       25       11       21        3    12.887       62     40.3    5.188   -9.900     1.50    0.000    0.000       26        9     2007  Maize_short_Chisinau_6June_NonOptimum_85_MPI.PRM
  Tot(28)        6        6     2008    239.5    514.8   1289.7   385.59      0.0    227.2     12.3      4.8      0.0    119.9       47    250.8    196.4       94     0.000     0.000     0.000     0.000      107        0       42       25       14        6        4    13.658       68     40.2    5.485   -9.900     1.48    0.000    0.000       26        9     2008  Maize_short_Chisinau_6June_NonOptimum_85_MPI.PRM
  Tot(29)        6        6     2009    175.7    556.7   1379.5   387.37      0.0    173.5      2.2      0.0      0.0    116.2       42    265.1    207.4       91     0.000     0.000     0.000     0.000      107        0       42       25        6       10        8    14.406       64     40.2    5.791   -9.900     1.52    0.000    0.000       26        9     2009  Maize_short_Chisinau_6June_NonOptimum_85_MPI.PRM
  Tot(30)        6        6     2010    248.7    490.7   1382.9   389.85      0.0    230.1     18.6     30.3      0.0    125.5       55    241.0    187.5       91     0.000     0.000     0.000     0.000      107        0       42       25       11       12        5    14.053       66     40.6    5.709   -9.900     1.56    0.000    0.000       26        9     2010  Maize_short_Chisinau_6June_NonOptimum_85_MPI.PRM
  Tot(31)        6        6     2011    205.0    522.5   1358.5   391.63      0.0    185.1     19.9     29.8      0.0    141.0       56    230.2    181.5       84     0.000     0.000     0.000     0.000      107        0       42       25        7       11       16    12.567       54     40.0    5.022   -9.900     1.35    0.000    0.000       26        9     2011  Maize_short_Chisinau_6June_NonOptimum_85_MPI.PRM
  Tot(32)        6        6     2012    146.0    597.2   1443.1   393.82      0.0    144.1      1.9      3.1      0.0     98.3       30    244.6    192.7       88     0.000     0.000     0.000     0.000      107        0       42       25        5       21       11    12.352       55     40.2    4.969   -9.900     1.45    0.000    0.000       26        9     2012  Maize_short_Chisinau_6June_NonOptimum_85_MPI.PRM
  Tot(33)        6        6     2013    345.4    493.2   1303.2   396.48      0.0    292.7     52.7     37.3      0.0    119.6       50    240.9    188.9       97     0.000     0.000     0.000     0.000      107        0       42       25       12       10        2    14.447       70     40.5    5.850   -9.900     1.62    0.000    0.000       26        9     2013  Maize_short_Chisinau_6June_NonOptimum_85_MPI.PRM
  Tot(34)        6        6     2014    170.9    550.3   1350.4   398.55      0.0    169.2      1.7      0.0      0.0    105.2       42    270.6    211.2       89     0.000     0.000     0.000     0.000      107        0       42       25        9       10       10    14.068       64     40.2    5.654   -9.900     1.50    0.000    0.000       26        9     2014  Maize_short_Chisinau_6June_NonOptimum_85_MPI.PRM
  Tot(35)        6        6     2015    125.4    579.0   1437.4   402.00      0.0    124.8      0.6      0.0      0.0    129.4       40    205.3    162.9       81     0.000     0.000     0.000     0.000      102        0       42       25        5       24       18    10.104       44     39.3    3.974   -9.900     1.20    0.000    0.000       26        9     2015  Maize_short_Chisinau_6June_NonOptimum_85_MPI.PRM
  Tot(36)        6        6     2016    160.2    553.8   1415.3   404.00      0.0    154.0      6.2     12.5      0.0    129.1       43    213.2    168.6       82     0.000     0.000     0.000     0.000      107        0       42       25        8       21       15    11.079       50     40.2    4.451   -9.900     1.30    0.000    0.000       26        9     2016  Maize_short_Chisinau_6June_NonOptimum_85_MPI.PRM
  Tot(37)        6        6     2017    253.3    534.3   1396.1   407.00      0.0    233.1     20.2     24.7      0.0    138.7       58    279.8    217.1       93     0.000     0.000     0.000     0.000      107        0       42       25        6        4        7    15.415       68     39.9    6.158   -9.900     1.47    0.000    0.000       26        9     2017  Maize_short_Chisinau_6June_NonOptimum_85_MPI.PRM
  Tot(38)        6        6     2018    286.1    507.8   1446.5   410.00      0.0    269.1     17.0     27.6      0.0    155.4       69    278.5    216.4       94     0.000     0.000     0.000     0.000      107        0       42       25        6        2        4    16.183       70     40.1    6.485   -9.900     1.49    0.000    0.000       26        9     2018  Maize_short_Chisinau_6June_NonOptimum_85_MPI.PRM
  Tot(39)        6        6     2019    156.4    558.4   1419.7   413.00      0.0    153.3      3.1      1.1      0.0    117.3       42    245.5    191.8       86     0.000     0.000     0.000     0.000      107        0       42       25        7        9       15    13.077       58     39.7    5.186   -9.900     1.43    0.000    0.000       26        9     2019  Maize_short_Chisinau_6June_NonOptimum_85_MPI.PRM
  Tot(40)        6        6     2020     91.8    507.2   1189.1   416.00      0.0     91.7      0.1      0.0      0.0     76.2       29    214.9    168.5       92     0.000     0.000     0.000     0.000      107        0       42       25       17       15        6    12.632       64     40.4    5.106   -9.900     1.75    0.000    0.000       26        9     2020  Maize_short_Chisinau_6June_NonOptimum_85_MPI.PRM
  Tot(41)        6        6     2021    154.0    437.8   1106.8   419.00      0.0    148.7      5.3     18.8      0.0    100.4       57    236.6    183.7       94     0.000     0.000     0.000     0.000      107        0       42       25       18        4        6    14.671       70     40.1    5.886   -9.900     1.75    0.000    0.000       26        9     2021  Maize_short_Chisinau_6June_NonOptimum_85_MPI.PRM
  Tot(42)        6        6     2022    165.9    464.3   1135.8   422.00      0.0    143.4     22.5     32.0      0.0    106.6       52    209.6    164.6       87     0.000     0.000     0.000     0.000      107        0       42       25       18       16       11    12.344       61     40.5    4.997   -9.900     1.58    0.000    0.000       26        9     2022  Maize_short_Chisinau_6June_NonOptimum_85_MPI.PRM
  Tot(43)        6        6     2023    331.2    432.7   1116.5   425.00      0.0    265.9     65.3     51.5      0.0     83.7       36    184.6    143.8      100     0.000     0.000     0.000     0.000      107        0       42       25       20        3        0    13.611       73     40.0    5.445   -9.900     2.03    0.000    0.000       26        9     2023  Maize_short_Chisinau_6June_NonOptimum_85_MPI.PRM
  Tot(44)        6        6     2024    128.8    431.6   1022.7   428.00      0.0    127.7      1.1      0.0      0.0     81.3       36    185.3    145.1      100     0.000     0.000     0.000     0.000      107        0       42       25       25       17        0    12.579       71     40.7    5.119   -9.900     1.92    0.000    0.000       26        9     2024  Maize_short_Chisinau_6June_NonOptimum_85_MPI.PRM
  Tot(45)        6        6     2025    323.6    468.4   1123.1   431.00      0.0    238.4     85.2      0.0      0.0     71.5       26    194.5    153.8      100     0.000     0.000     0.000     0.000      107        0       42       25       25       13        0    11.835       69     40.3    4.771   -9.900     1.79    0.000    0.000       26        9     2025  Maize_short_Chisinau_6June_NonOptimum_85_MPI.PRM
  Tot(46)        6        6     2026    261.6    460.5   1294.9   435.00      0.0    242.4     19.2      7.1      0.0    100.2       41    214.0    166.2      100     0.000     0.000     0.000     0.000      107        0       42       25       12        3        0    15.869       74     40.1    6.357   -9.900     2.02    0.000    0.000       26        9     2026  Maize_short_Chisinau_6June_NonOptimum_85_MPI.PRM
  Tot(47)        6        6     2027    194.4    416.9   1098.4   438.00      0.0    188.8      5.6     11.5      0.0    112.0       54    192.5    150.1      100     0.000     0.000     0.000     0.000      107        0       42       25       18        2        0    14.714       75     40.1    5.902   -9.900     1.94    0.000    0.000       26        9     2027  Maize_short_Chisinau_6June_NonOptimum_85_MPI.PRM
  Tot(48)        6        6     2028    213.3    443.0   1140.1   442.00      0.0    202.6     10.7      2.3      0.0    117.1       57    225.8    176.0       96     0.000     0.000     0.000     0.000      107        0       42       25       13       11        2    14.902       70     40.7    6.058   -9.900     1.77    0.000    0.000       26        9     2028  Maize_short_Chisinau_6June_NonOptimum_85_MPI.PRM
  Tot(49)        6        6     2029    325.7    395.0   1142.3   445.00      0.0    286.0     39.7     54.9      0.0    112.3       66    212.5    163.6      100     0.000     0.000     0.000     0.000      107        0       42       25       13        1        0    15.814       75     40.0    6.332   -9.900     1.95    0.000    0.000       26        9     2029  Maize_short_Chisinau_6June_NonOptimum_85_MPI.PRM
  Tot(50)        6        6     2030    163.1    453.9    995.3   449.00      0.0    159.5      3.6      2.4      0.0     78.8       35    199.3    156.5      100     0.000     0.000     0.000     0.000      107        0       42       25       25       10        0    13.216       73     40.3    5.322   -9.900     1.91    0.000    0.000       26        9     2030  Maize_short_Chisinau_6June_NonOptimum_85_MPI.PRM
  Tot(51)        6        6     2031    237.0    390.6    980.9   452.00      0.0    222.5     14.5     30.0      0.0    109.2       73    198.4    153.9      100     0.000     0.000     0.000     0.000      107        0       42       25       29        1        0    13.134       76     40.1    5.268   -9.900     1.71    0.000    0.000       26        9     2031  Maize_short_Chisinau_6June_NonOptimum_85_MPI.PRM
  Tot(52)        6        6     2032    137.6    530.8   1301.0   456.00      0.0    131.6      6.0     12.2      0.0     98.9       38    234.7    184.0       85     0.000     0.000     0.000     0.000      107        0       42       25       10       15       13    13.469       59     40.5    5.449   -9.900     1.63    0.000    0.000       26        9     2032  Maize_short_Chisinau_6June_NonOptimum_85_MPI.PRM
  Tot(53)        6        6     2033    174.4    479.0   1121.5   460.00      0.0    173.3      1.1      0.0      0.0    105.9       46    230.5    178.0      100     0.000     0.000     0.000     0.000      107        0       42       25       17        7        0    14.594       74     40.4    5.894   -9.900     1.75    0.000    0.000       26        9     2033  Maize_short_Chisinau_6June_NonOptimum_85_MPI.PRM
  Tot(54)        6        6     2034    147.3    533.9   1367.6   464.00      0.0    146.4      0.9      0.0      0.0    103.2       38    252.2    197.9       93     0.000     0.000     0.000     0.000      107        0       42       25        7        6        8    15.176       66     39.9    6.061   -9.900     1.71    0.000    0.000       26        9     2034  Maize_short_Chisinau_6June_NonOptimum_85_MPI.PRM
  Tot(55)        6        6     2035     80.9    517.8   1173.2   468.00      0.0     80.9      0.0      0.0      0.0     97.7       34    181.2    143.8       85     0.000     0.000     0.000     0.000      107        0       42       25       17       20       13    10.707       54     40.6    4.346   -9.900     1.56    0.000    0.000       26        9     2035  Maize_short_Chisinau_6June_NonOptimum_85_MPI.PRM
  Tot(56)        6        6     2036     72.1    615.8   1423.2   472.00      0.0     71.9      0.2      0.0      0.0     90.3       24    190.1    151.7       79     0.000     0.000     0.000     0.000       98        0       42       25        6       27       18     9.298       40     35.2    3.269   -9.900     1.17    0.000    0.000       26        9     2036  Maize_short_Chisinau_6June_NonOptimum_85_MPI.PRM
  Tot(57)        6        6     2037    131.7    470.0   1201.1   476.00      0.0    126.7      5.0     10.4      0.0    104.4       51    220.6    172.0       88     0.000     0.000     0.000     0.000      107        0       42       25       11       12       11    13.703       62     40.3    5.519   -9.900     1.70    0.000    0.000       26        9     2037  Maize_short_Chisinau_6June_NonOptimum_85_MPI.PRM
  Tot(58)        6        6     2038    191.1    500.0   1111.0   481.00      0.0    175.0     16.1      3.6      0.0     95.6       37    208.0    164.6       93     0.000     0.000     0.000     0.000      107        0       42       25       22       17        3    12.152       64     40.5    4.927   -9.900     1.62    0.000    0.000       26        9     2038  Maize_short_Chisinau_6June_NonOptimum_85_MPI.PRM
  Tot(59)        6        6     2039    225.1    459.3   1244.6   485.00      0.0    212.3     12.8      1.5      0.0    110.4       50    240.4    184.9      100     0.000     0.000     0.000     0.000      107        0       42       25        8        2        0    16.916       74     40.0    6.774   -9.900     1.93    0.000    0.000       26        9     2039  Maize_short_Chisinau_6June_NonOptimum_85_MPI.PRM
  Tot(60)        6        6     2040    158.4    422.2   1104.3   489.00      0.0    150.3      8.1     18.8      0.0    109.9       64    222.5    173.6       97     0.000     0.000     0.000     0.000      107        0       42       25       16        4        4    15.339       72     40.2    6.160   -9.900     1.85    0.000    0.000       26        9     2040  Maize_short_Chisinau_6June_NonOptimum_85_MPI.PRM
  Tot(61)        6        6     2041    237.6    491.4   1124.6   494.00      0.0    193.5     44.1      0.0      0.0     97.7       39    224.9    176.3       99     0.000     0.000     0.000     0.000      107        0       42       25       18       11        0    14.674       72     40.6    5.958   -9.900     1.85    0.000    0.000       26        9     2041  Maize_short_Chisinau_6June_NonOptimum_85_MPI.PRM
  Tot(62)        6        6     2042    248.8    440.2   1135.9   499.00      0.0    222.1     26.7     17.7      0.0     94.6       43    210.5    163.6      100     0.000     0.000     0.000     0.000      107        0       42       25       14        2        0    15.567       74     40.0    6.229   -9.900     2.04    0.000    0.000       26        9     2042  Maize_short_Chisinau_6June_NonOptimum_85_MPI.PRM
  Tot(63)        6        6     2043    191.0    491.9   1356.4   504.00      0.0    185.5      5.5      6.2      0.0    112.7       50    244.5    190.7       91     0.000     0.000     0.000     0.000      107        0       42       25        6        8        9    15.581       65     40.1    6.247   -9.900     1.75    0.000    0.000       26        9     2043  Maize_short_Chisinau_6June_NonOptimum_85_MPI.PRM
  Tot(64)        6        6     2044    108.6    549.8   1319.9   508.00      0.0    106.0      2.6      4.6      0.0     98.9       36    218.3    171.6       82     0.000     0.000     0.000     0.000      107        0       42       25       10       12       16    12.543       56     39.7    4.980   -9.900     1.57    0.000    0.000       26        9     2044  Maize_short_Chisinau_6June_NonOptimum_85_MPI.PRM
  Tot(65)        6        6     2045    135.8    520.5   1359.3   513.00      0.0    134.4      1.4      0.0      0.0     95.8       35    237.4    185.7       95     0.000     0.000     0.000     0.000      107        0       42       25        8       11        5    15.484       67     40.1    6.203   -9.900     1.86    0.000    0.000       26        9     2045  Maize_short_Chisinau_6June_NonOptimum_85_MPI.PRM
  Tot(66)        6        6     2046    291.8    436.0   1284.0   519.00      0.0    268.2     23.6     38.6      0.0    117.2       67    261.1    201.3      100     0.000     0.000     0.000     0.000      107        0       42       25        7        8        0    17.835       75     40.4    7.209   -9.900     1.91    0.000    0.000       26        9     2046  Maize_short_Chisinau_6June_NonOptimum_85_MPI.PRM
  Tot(67)        6        6     2047    222.3    435.7   1182.3   524.00      0.0    217.8      4.5      1.8      0.0    105.1       45    189.9    149.7      100     0.000     0.000     0.000     0.000      107        0       42       25       13        3        0    15.486       74     40.0    6.195   -9.900     2.10    0.000    0.000       26        9     2047  Maize_short_Chisinau_6June_NonOptimum_85_MPI.PRM
  Tot(68)        6        6     2048     66.8    564.5   1353.0   529.00      0.0     66.8      0.0      0.0      0.0     84.8       26    193.7    155.1       82     0.000     0.000     0.000     0.000      103        0       42       25        7       27       17    10.727       46     40.1    4.303   -9.900     1.55    0.000    0.000       26        9     2048  Maize_short_Chisinau_6June_NonOptimum_85_MPI.PRM
  Tot(69)        6        6     2049    172.2    508.8   1291.0   535.00      0.0    165.8      6.4      7.5      0.0     97.7       47    273.1    211.2       92     0.000     0.000     0.000     0.000      107        0       42       25       10        6        7    16.012       68     40.2    6.438   -9.900     1.74    0.000    0.000       26        9     2049  Maize_short_Chisinau_6June_NonOptimum_85_MPI.PRM
  Tot(70)        6        6     2050    135.8    447.5   1237.4   541.00      0.0    135.3      0.5      1.0      0.0     86.9       43    237.3    184.5       98     0.000     0.000     0.000     0.000      107        0       42       25        9        6        2    16.866       72     40.2    6.778   -9.900     2.09    0.000    0.000       26        9     2050  Maize_short_Chisinau_6June_NonOptimum_85_MPI.PRM
  Tot(71)        6        6     2051    223.2    475.2   1213.8   546.00      0.0    212.0     11.2     20.2      0.0    122.2       56    247.6    192.8       99     0.000     0.000     0.000     0.000      107        0       42       25       10       14        1    16.693       73     40.8    6.805   -9.900     1.84    0.000    0.000       26        9     2051  Maize_short_Chisinau_6June_NonOptimum_85_MPI.PRM
  Tot(72)        6        6     2052    213.9    466.1   1189.6   552.00      0.0    194.5     19.4      0.0      0.0     91.4       44    232.0    182.4       93     0.000     0.000     0.000     0.000      107        0       42       25       15       15        3    14.593       67     40.5    5.913   -9.900     1.83    0.000    0.000       26        9     2052  Maize_short_Chisinau_6June_NonOptimum_85_MPI.PRM
  Tot(73)        6        6     2053    108.7    556.3   1349.8   558.00      0.0    108.6      0.1      0.0      0.0     90.7       32    232.4    182.3       86     0.000     0.000     0.000     0.000      107        0       42       25        8       17       12    13.554       59     40.5    5.484   -9.900     1.70    0.000    0.000       26        9     2053  Maize_short_Chisinau_6June_NonOptimum_85_MPI.PRM
  Tot(74)        6        6     2054     86.5    577.1   1468.1   564.00      0.0     85.9      0.6      0.0      0.0     93.3       28    195.7    155.9       82     0.000     0.000     0.000     0.000      107        0       42       25        3       25       15    11.133       45     40.5    4.511   -9.900     1.56    0.000    0.000       26        9     2054  Maize_short_Chisinau_6June_NonOptimum_85_MPI.PRM
  Tot(75)        6        6     2055    116.1    506.2   1273.8   571.00      0.0    115.3      0.8      0.0      0.0     70.8       30    245.1    191.7       92     0.000     0.000     0.000     0.000      107        0       42       25        9        9        6    15.329       65     40.1    6.144   -9.900     1.95    0.000    0.000       26        9     2055  Maize_short_Chisinau_6June_NonOptimum_85_MPI.PRM
  Tot(76)        6        6     2056     89.3    540.3   1308.9   577.00      0.0     89.2      0.1      0.0      0.0     86.7       31    209.5    164.4       85     0.000     0.000     0.000     0.000      107        0       42       25        8       16       13    12.778       55     40.4    5.157   -9.900     1.74    0.000    0.000       26        9     2056  Maize_short_Chisinau_6June_NonOptimum_85_MPI.PRM
  Tot(77)        6        6     2057     97.8    536.2   1289.9   583.00      0.0     97.2      0.6      0.6      0.0     75.0       28    226.9    179.4       86     0.000     0.000     0.000     0.000      107        0       42       25       11       21       10    13.001       57     40.6    5.276   -9.900     1.75    0.000    0.000       26        9     2057  Maize_short_Chisinau_6June_NonOptimum_85_MPI.PRM
  Tot(78)        6        6     2058    256.7    428.4   1209.3   590.00      0.0    239.5     17.2     11.9      0.0    121.2       60    212.2    164.7      100     0.000     0.000     0.000     0.000      107        0       42       25       11        3        0    16.578       75     40.1    6.644   -9.900     1.99    0.000    0.000       26        9     2058  Maize_short_Chisinau_6June_NonOptimum_85_MPI.PRM
  Tot(79)        6        6     2059     91.9    604.2   1475.4   597.00      0.0     91.0      0.9      0.0      0.0    105.2       32    192.7    154.3       77     0.000     0.000     0.000     0.000       97        0       42       25        3       25       19     9.610       40     34.1    3.275   -9.900     1.11    0.000    0.000       26        9     2059  Maize_short_Chisinau_6June_NonOptimum_85_MPI.PRM
  Tot(80)        6        6     2060    129.6    540.2   1269.7   604.00      0.0    123.0      6.6     15.9      0.0     87.9       33    236.2    184.5       89     0.000     0.000     0.000     0.000      107        0       42       25        8        9       10    14.606       62     39.8    5.812   -9.900     1.79    0.000    0.000       26        9     2060  Maize_short_Chisinau_6June_NonOptimum_85_MPI.PRM
  Tot(81)        6        6     2061    203.4    441.1   1083.4   611.00      0.0    196.7      6.7     17.9      0.0     95.3       48    219.1    170.8      100     0.000     0.000     0.000     0.000      107        0       42       25       23        7        0    14.468       74     40.4    5.840   -9.900     1.86    0.000    0.000       26        9     2061  Maize_short_Chisinau_6June_NonOptimum_85_MPI.PRM
  Tot(82)        6        6     2062    178.3    481.7   1321.6   618.00      0.0    167.6     10.7      0.0      0.0     90.3       38    214.8    168.2       88     0.000     0.000     0.000     0.000      107        0       42       25        7       16        7    14.447       62     40.6    5.867   -9.900     1.92    0.000    0.000       26        9     2062  Maize_short_Chisinau_6June_NonOptimum_85_MPI.PRM
  Tot(83)        6        6     2063    210.7    497.8   1286.0   625.00      0.0    200.7     10.0      4.2      0.0     91.1       36    229.1    178.1      100     0.000     0.000     0.000     0.000      107        0       42       25       11        7        0    15.576       72     40.3    6.280   -9.900     1.96    0.000    0.000       26        9     2063  Maize_short_Chisinau_6June_NonOptimum_85_MPI.PRM
  Tot(84)        6        6     2064    164.1    491.8   1414.4   632.00      0.0    162.0      2.1      8.0      0.0    111.0       51    252.8    196.7       93     0.000     0.000     0.000     0.000      107        0       42       25        3        7        7    16.436       67     40.2    6.602   -9.900     1.81    0.000    0.000       26        9     2064  Maize_short_Chisinau_6June_NonOptimum_85_MPI.PRM
  Tot(85)        6        6     2065    199.1    495.2   1238.1   639.00      0.0    189.0     10.1     21.0      0.0    108.1       48    239.0    186.4       97     0.000     0.000     0.000     0.000      107        0       42       25       14       11        2    15.093       70     40.5    6.119   -9.900     1.76    0.000    0.000       26        9     2065  Maize_short_Chisinau_6June_NonOptimum_85_MPI.PRM
  Tot(86)        6        6     2066    240.7    611.9   1481.9   647.00      0.0    194.8     45.9      0.0      0.0     99.4       30    238.6    188.6       87     0.000     0.000     0.000     0.000      107        0       42       25        6       27        6    13.432       57     40.8    5.475   -9.900     1.62    0.000    0.000       26        9     2066  Maize_short_Chisinau_6June_NonOptimum_85_MPI.PRM
  Tot(87)        6        6     2067    205.0    468.5   1265.5   654.00      0.0    197.2      7.8      0.0      0.0     86.5       40    237.9    184.5      100     0.000     0.000     0.000     0.000      107        0       42       25       10        6        0    16.935       74     40.2    6.803   -9.900     2.10    0.000    0.000       26        9     2067  Maize_short_Chisinau_6June_NonOptimum_85_MPI.PRM
  Tot(88)        6        6     2068    149.7    507.8   1297.2   662.00      0.0    147.7      2.0      0.0      0.0     87.2       33    224.9    176.6       98     0.000     0.000     0.000     0.000      107        0       42       25        9       15        1    15.486       70     40.6    6.292   -9.900     2.02    0.000    0.000       26        9     2068  Maize_short_Chisinau_6June_NonOptimum_85_MPI.PRM
  Tot(89)        6        6     2069    190.7    494.1   1359.3   669.00      0.0    183.2      7.5      0.0      0.0     80.0       30    216.4    169.4      100     0.000     0.000     0.000     0.000      107        0       42       25        7        4        0    16.635       73     40.0    6.654   -9.900     2.24    0.000    0.000       26        9     2069  Maize_short_Chisinau_6June_NonOptimum_85_MPI.PRM
  Tot(90)        6        6     2070     47.5    598.4   1559.0   677.00      0.0     47.5      0.0      0.0      0.0     65.3       18    170.7    137.9       78     0.000     0.000     0.000     0.000       96        0       42       25        3       30       18     8.614       34     33.3    2.866   -9.900     1.26    0.000    0.000       26        9     2070  Maize_short_Chisinau_6June_NonOptimum_85_MPI.PRM
  Tot(91)        6        6     2071     70.9    589.8   1522.2   685.00      0.0     68.9      2.0      7.6      0.0     76.5       27    206.8    163.0       74     0.000     0.000     0.000     0.000      105        0       42       25        3       16       21    11.520       46     39.1    4.505   -9.900     1.59    0.000    0.000       26        9     2071  Maize_short_Chisinau_6June_NonOptimum_85_MPI.PRM
  Tot(92)        6        6     2072     92.3    638.5   1499.4   693.00      0.0     91.2      1.1      0.0      0.0     73.8       18    205.2    164.8       87     0.000     0.000     0.000     0.000      107        0       42       25        5       34        8    11.459       49     40.8    4.671   -9.900     1.67    0.000    0.000       26        9     2072  Maize_short_Chisinau_6June_NonOptimum_85_MPI.PRM
  Tot(93)        6        6     2073    176.3    422.8   1235.9   701.00      0.0    163.7     12.6      7.6      0.0     76.7       40    223.2    173.3      100     0.000     0.000     0.000     0.000      107        0       42       25        8        2        0    17.850       75     40.1    7.150   -9.900     2.38    0.000    0.000       26        9     2073  Maize_short_Chisinau_6June_NonOptimum_85_MPI.PRM
  Tot(94)        6        6     2074    230.5    442.3   1240.5   709.00      0.0    205.3     25.2     17.5      0.0    115.5       59    224.8    173.6      100     0.000     0.000     0.000     0.000      107        0       42       25       10        2        0    16.657       75     40.0    6.665   -9.900     1.96    0.000    0.000       26        9     2074  Maize_short_Chisinau_6June_NonOptimum_85_MPI.PRM
  Tot(95)        6        6     2075    122.9    518.0   1470.0   717.00      0.0    112.8     10.1     27.4      0.0    105.7       41    191.5    152.5       81     0.000     0.000     0.000     0.000      103        0       42       25        2       21       18    11.399       47     40.2    4.578   -9.900     1.55    0.000    0.000       26        9     2075  Maize_short_Chisinau_6June_NonOptimum_85_MPI.PRM
  Tot(96)        6        6     2076    124.6    590.7   1602.5   725.00      0.0    119.5      5.1      0.0      0.0     92.4       28    234.7    184.7       89     0.000     0.000     0.000     0.000      107        0       42       25        2       21        8    14.551       60     40.7    5.918   -9.900     1.81    0.000    0.000       26        9     2076  Maize_short_Chisinau_6June_NonOptimum_85_MPI.PRM
  Tot(97)        6        6     2077    202.7    514.6   1492.9   733.00      0.0    194.5      8.2      7.4      0.0    115.7       45    218.8    172.2       89     0.000     0.000     0.000     0.000      107        0       42       25        4       18        7    14.422       60     40.7    5.868   -9.900     1.75    0.000    0.000       26        9     2077  Maize_short_Chisinau_6June_NonOptimum_85_MPI.PRM
  Tot(98)        6        6     2078    149.2    510.8   1398.0   742.00      0.0    147.8      1.4      0.0      0.0    121.5       51    230.2    180.1       93     0.000     0.000     0.000     0.000      107        0       42       25        9        8        7    14.999       68     40.2    6.033   -9.900     1.72    0.000    0.000       26        9     2078  Maize_short_Chisinau_6June_NonOptimum_85_MPI.PRM
  Tot(99)        6        6     2079    108.0    537.8   1339.0   750.00      0.0     97.5     10.5      3.6      0.0     81.0       32    228.8    177.4       87     0.000     0.000     0.000     0.000      107        0       42       25        7        5       12    14.143       62     39.8    5.624   -9.900     1.82    0.000    0.000       26        9     2079  Maize_short_Chisinau_6June_NonOptimum_85_MPI.PRM
 Tot(100)        6        6     2080    120.1    550.8   1419.7   758.00      0.0    118.6      1.5      0.0      0.0     71.3       27    244.4    190.4       92     0.000     0.000     0.000     0.000      107        0       42       25        7        7        8    14.965       65     40.1    6.007   -9.900     1.90    0.000    0.000       26        9     2080  Maize_short_Chisinau_6June_NonOptimum_85_MPI.PRM
 Tot(101)        6        6     2081    199.5    482.3   1353.1   767.00      0.0    188.7     10.8      2.2      0.0     89.5       42    249.5    192.9      100     0.000     0.000     0.000     0.000      107        0       42       25        8        6        0    16.754       74     40.3    6.754   -9.900     1.99    0.000    0.000       26        9     2081  Maize_short_Chisinau_6June_NonOptimum_85_MPI.PRM
 Tot(102)        6        6     2082     43.2    679.3   1667.8   775.00      0.0     43.2      0.0      0.0      0.0     72.5       18    179.8    144.8       77     0.000     0.000     0.000     0.000       95        0       42       25        1       28       19     8.972       37     32.2    2.887   -9.900     1.16    0.000    0.000       26        9     2082  Maize_short_Chisinau_6June_NonOptimum_85_MPI.PRM
 Tot(103)        6        6     2083    186.1    528.1   1500.6   784.00      0.0    165.7     20.4     23.7      0.0    106.9       41    203.8    159.9       83     0.000     0.000     0.000     0.000      107        0       42       25        4       20       12    12.128       51     40.6    4.920   -9.900     1.58    0.000    0.000       26        9     2083  Maize_short_Chisinau_6June_NonOptimum_85_MPI.PRM
 Tot(104)        6        6     2084    158.1    469.9   1385.6   792.00      0.0    156.7      1.4      0.0      0.0    110.6       52    232.4    181.1       99     0.000     0.000     0.000     0.000      107        0       42       25        7        6        1    16.805       73     40.2    6.750   -9.900     1.97    0.000    0.000       26        9     2084  Maize_short_Chisinau_6June_NonOptimum_85_MPI.PRM
 Tot(105)        6        6     2085    126.2    604.2   1499.6   801.00      0.0    118.5      7.7     23.1      0.0     98.7       33    209.6    165.7       76     0.000     0.000     0.000     0.000      107        0       42       25        3       23       19    11.380       46     40.2    4.572   -9.900     1.48    0.000    0.000       26        9     2085  Maize_short_Chisinau_6June_NonOptimum_85_MPI.PRM
 Tot(106)        6        6     2086    128.2    598.1   1544.1   810.00      0.0    118.5      9.7     17.9      0.0     92.6       32    227.4    178.7       83     0.000     0.000     0.000     0.000      107        0       42       25        2        9       16    13.089       54     39.6    5.178   -9.900     1.62    0.000    0.000       26        9     2086  Maize_short_Chisinau_6June_NonOptimum_85_MPI.PRM
 Tot(107)        6        6     2087    100.6    507.3   1367.2   818.00      0.0     94.0      6.6      0.3      0.0     69.5       25    214.2    169.7       99     0.000     0.000     0.000     0.000      107        0       42       25        7       23        2    14.848       66     40.7    6.043   -9.900     2.13    0.000    0.000       26        9     2087  Maize_short_Chisinau_6June_NonOptimum_85_MPI.PRM
 Tot(108)        6        6     2088    204.8    538.2   1426.6   827.00      0.0    146.0     58.8     34.9      0.0    109.3       39    214.8    168.6       89     0.000     0.000     0.000     0.000      107        0       42       25        4       15       10    14.460       62     40.4    5.844   -9.900     1.80    0.000    0.000       26        9     2088  Maize_short_Chisinau_6June_NonOptimum_85_MPI.PRM
 Tot(109)        6        6     2089    183.8    482.2   1323.7   836.00      0.0    181.7      2.1      2.6      0.0    111.0       52    239.0    186.7       99     0.000     0.000     0.000     0.000      107        0       42       25       10       12        1    15.897       72     40.5    6.436   -9.900     1.84    0.000    0.000       26        9     2089  Maize_short_Chisinau_6June_NonOptimum_85_MPI.PRM
 Tot(110)        6        6     2090     61.8    626.6   1511.8   845.00      0.0     61.8      0.0      0.0      0.0     75.1       20    188.4    151.5       83     0.000     0.000     0.000     0.000      107        0       42       25        5       30       14    10.331       45     40.4    4.176   -9.900     1.58    0.000    0.000       26        9     2090  Maize_short_Chisinau_6June_NonOptimum_85_MPI.PRM
 Tot(111)        6        6     2091    112.3    557.5   1495.4   854.00      0.0    110.1      2.2      0.0      0.0     88.1       31    224.8    177.7       89     0.000     0.000     0.000     0.000      107        0       42       25        4       24        8    13.989       60     40.8    5.710   -9.900     1.82    0.000    0.000       26        9     2091  Maize_short_Chisinau_6June_NonOptimum_85_MPI.PRM
 Tot(112)        6        6     2092     67.1    672.3   1590.9   863.00      0.0     66.7      0.4      0.0      0.0     85.3       22    185.4    148.9       77     0.000     0.000     0.000     0.000       92        0       42       25        1       29       19     8.160       35     29.0    2.368   -9.900     0.90    0.000    0.000       26        9     2092  Maize_short_Chisinau_6June_NonOptimum_85_MPI.PRM
 Tot(113)        6        6     2093    109.4    555.4   1470.4   872.00      0.0    107.3      2.1      5.0      0.0    100.3       39    216.9    169.5       83     0.000     0.000     0.000     0.000      107        0       42       25        3       11       16    12.804       54     40.0    5.126   -9.900     1.62    0.000    0.000       26        9     2093  Maize_short_Chisinau_6June_NonOptimum_85_MPI.PRM
 Tot(114)        6        6     2094    115.2    509.1   1451.4   881.00      0.0    110.5      4.7      0.0      0.0     77.6       30    231.1    181.3       97     0.000     0.000     0.000     0.000      107        0       42       25        3       20        3    15.948       67     40.6    6.478   -9.900     2.10    0.000    0.000       26        9     2094  Maize_short_Chisinau_6June_NonOptimum_85_MPI.PRM
 Tot(115)        6        6     2095    219.9    608.8   1545.4   890.00      0.0    152.7     67.2      0.0      0.0     71.7       19    212.2    169.4       95     0.000     0.000     0.000     0.000      107        0       42       25        8       25        2    13.545       62     40.8    5.533   -9.900     1.95    0.000    0.000       26        9     2095  Maize_short_Chisinau_6June_NonOptimum_85_MPI.PRM
 Tot(116)        6        6     2096     75.1    707.4   1759.0   899.00      0.0     74.6      0.5      0.0      0.0     94.5       23    180.9    144.4       75     0.000     0.000     0.000     0.000       92        0       42       25        0       28       19     7.763       32     23.4    1.819   -9.900     0.66    0.000    0.000       26        9     2096  Maize_short_Chisinau_6June_NonOptimum_85_MPI.PRM
 Tot(117)        6        6     2097    293.1    446.2   1396.1   908.00      0.0    263.4     29.7      1.6      0.0    108.6       46    190.2    147.5      100     0.000     0.000     0.000     0.000      107        0       42       25        7        2        0    16.297       74     40.0    6.519   -9.900     2.18    0.000    0.000       26        9     2097  Maize_short_Chisinau_6June_NonOptimum_85_MPI.PRM
 Tot(118)        6        6     2098    145.9    497.3   1410.2   917.00      0.0    142.0      3.9      1.2      0.0     94.4       41    240.5    186.5       97     0.000     0.000     0.000     0.000      107        0       42       25        3        6        2    16.891       72     40.1    6.772   -9.900     2.02    0.000    0.000       26        9     2098  Maize_short_Chisinau_6June_NonOptimum_85_MPI.PRM
 Tot(119)        6        6     2099    117.9    588.1   1501.5   927.00      0.0    116.3      1.6      0.0      0.0     77.1       21    206.2    167.2       96     0.000     0.000     0.000     0.000      107        0       42       25        6       30        2    12.908       58     40.7    5.259   -9.900     1.86    0.000    0.000       26        9     2099  Maize_short_Chisinau_6June_NonOptimum_85_MPI.PRM
