AquaCrop 7.0 (August 2022) - Output created on (date) : 23-11-2022   at (time) : 12:11:13

    RunNr     Day1   Month1    Year1     Rain      ETo       GD     CO2      Irri   Infilt   Runoff    Drain   Upflow        E     E/Ex       Tr      TrW   Tr/Trx    SaltIn   SaltOut    SaltUp  SaltProf     Cycle   SaltStr  FertStr  WeedStr  TempStr   ExpStr   StoStr  BioMass  Brelative   HI    Y(dry)  Y(fresh)    WPet      Bin     Bout     DayN   MonthN    YearN
                                           mm       mm  degC.day    ppm        mm       mm       mm       mm       mm       mm        %       mm       mm        %    ton/ha    ton/ha    ton/ha    ton/ha      days       %        %        %        %        %        %    ton/ha        %       %    ton/ha   ton/ha    kg/m3   ton/ha   ton/ha
   Tot(1)       22        5     1981    240.8    460.2   1219.9   340.11      0.0    210.3     30.5     45.0      0.0    104.1       48    244.4    188.7      100     0.000     0.000     0.000     0.000      107        0       42       25       13        3        0    15.113       74     40.1    6.058   -9.900     1.74    0.000    0.000       11        9     1981  Maize_Short_Soroca_22May_NonOptimum_26_NCC.PRM
   Tot(2)       22        5     1982    274.6    445.7   1204.3   341.22      0.0    238.9     35.7     42.9      0.0    128.1       64    250.3    193.3      100     0.000     0.000     0.000     0.000      107        0       42       25       11        2        0    16.014       74     40.0    6.413   -9.900     1.69    0.000    0.000       11        9     1982  Maize_Short_Soroca_22May_NonOptimum_26_NCC.PRM
   Tot(3)       22        5     1983    219.2    435.3   1214.1   342.84      0.0    214.3      4.9      0.1      0.0    106.4       56    242.1    186.9      100     0.000     0.000     0.000     0.000      107        0       42       25       11        1        0    15.803       75     40.0    6.322   -9.900     1.81    0.000    0.000       11        9     1983  Maize_Short_Soroca_22May_NonOptimum_26_NCC.PRM
   Tot(4)       22        5     1984    324.1    420.3   1075.3   344.40      0.0    305.9     18.2     19.5      0.0    155.4       90    234.9    182.6      100     0.000     0.000     0.000     0.000      107        0       42       25       18        0        0    15.245       75     40.0    6.098   -9.900     1.56    0.000    0.000       11        9     1984  Maize_Short_Soroca_22May_NonOptimum_26_NCC.PRM
   Tot(5)       22        5     1985    381.4    448.7   1131.4   345.87      0.0    343.1     38.3     63.4      0.0    143.5       80    261.4    202.1      100     0.000     0.000     0.000     0.000      107        0       42       25       17        1        0    15.276       75     40.1    6.128   -9.900     1.51    0.000    0.000       11        9     1985  Maize_Short_Soroca_22May_NonOptimum_26_NCC.PRM
   Tot(6)       22        5     1986    162.2    512.9   1240.3   347.19      0.0    161.8      0.4      0.0      0.0    109.8       46    253.4    196.7       94     0.000     0.000     0.000     0.000      107        0       42       25       13        7        5    14.037       69     40.1    5.631   -9.900     1.55    0.000    0.000       11        9     1986  Maize_Short_Soroca_22May_NonOptimum_26_NCC.PRM
   Tot(7)       22        5     1987    256.6    456.5   1133.8   348.98      0.0    246.2     10.4     15.1      0.0    136.1       68    245.6    191.7      100     0.000     0.000     0.000     0.000      107        0       42       25       17       12        0    14.615       73     40.5    5.921   -9.900     1.55    0.000    0.000       11        9     1987  Maize_Short_Soroca_22May_NonOptimum_26_NCC.PRM
   Tot(8)       22        5     1988    324.3    426.4   1235.2   351.45      0.0    304.9     19.4     38.9      0.0    140.6       84    261.7    203.6      100     0.000     0.000     0.000     0.000      107        0       42       25       12        1        0    15.942       76     40.1    6.389   -9.900     1.59    0.000    0.000       11        9     1988  Maize_Short_Soroca_22May_NonOptimum_26_NCC.PRM
   Tot(9)       22        5     1989    398.6    434.0   1151.2   352.89      0.0    334.0     64.6     24.5      0.0    114.7       60    245.6    191.2      100     0.000     0.000     0.000     0.000      107        0       42       25       14        4        0    15.504       74     40.1    6.224   -9.900     1.73    0.000    0.000       11        9     1989  Maize_Short_Soroca_22May_NonOptimum_26_NCC.PRM
  Tot(10)       22        5     1990    193.6    463.7   1109.4   354.16      0.0    190.8      2.8      6.4      0.0    145.0       75    243.2    188.9       92     0.000     0.000     0.000     0.000      107        0       42       25       17        6        8    14.208       68     40.2    5.707   -9.900     1.47    0.000    0.000       11        9     1990  Maize_Short_Soroca_22May_NonOptimum_26_NCC.PRM
  Tot(11)       22        5     1991    419.0    410.7   1159.5   355.48      0.0    366.8     52.2     52.7      0.0    138.5       81    241.6    186.6      100     0.000     0.000     0.000     0.000      107        0       42       25       14        1        0    16.131       76     40.0    6.457   -9.900     1.70    0.000    0.000       11        9     1991  Maize_Short_Soroca_22May_NonOptimum_26_NCC.PRM
  Tot(12)       22        5     1992    208.9    511.5   1268.1   356.27      0.0    203.2      5.7     14.5      0.0    147.2       71    241.9    189.8       80     0.000     0.000     0.000     0.000      107        0       42       25       11       13       14    12.129       55     39.8    4.830   -9.900     1.24    0.000    0.000       11        9     1992  Maize_Short_Soroca_22May_NonOptimum_26_NCC.PRM
  Tot(13)       22        5     1993    240.0    450.5   1102.8   356.95      0.0    233.7      6.3      5.7      0.0    119.2       61    243.7    187.5      100     0.000     0.000     0.000     0.000      107        0       42       25       17        2        0    14.725       75     40.1    5.899   -9.900     1.63    0.000    0.000       11        9     1993  Maize_Short_Soroca_22May_NonOptimum_26_NCC.PRM
  Tot(14)       22        5     1994    254.5    502.2   1248.0   358.63      0.0    222.8     31.7     20.8      0.0    124.3       56    248.7    195.0       87     0.000     0.000     0.000     0.000      107        0       42       25       12       13        8    13.509       60     40.5    5.468   -9.900     1.47    0.000    0.000       11        9     1994  Maize_Short_Soroca_22May_NonOptimum_26_NCC.PRM
  Tot(15)       22        5     1995    376.0    484.7   1320.2   360.62      0.0    320.5     55.5     21.5      0.0    109.4       50    278.5    215.9      100     0.000     0.000     0.000     0.000      107        0       42       25        6        4        0    16.384       73     40.1    6.563   -9.900     1.69    0.000    0.000       11        9     1995  Maize_Short_Soroca_22May_NonOptimum_26_NCC.PRM
  Tot(16)       22        5     1996    300.9    473.4   1194.7   362.37      0.0    280.7     20.2     14.7      0.0     98.5       42    244.4    191.0      100     0.000     0.000     0.000     0.000      107        0       42       25       13        3        0    15.280       73     40.0    6.112   -9.900     1.78    0.000    0.000       11        9     1996  Maize_Short_Soroca_22May_NonOptimum_26_NCC.PRM
  Tot(17)       22        5     1997    330.4    417.9   1118.9   363.47      0.0    311.2     19.2     16.2      0.0    121.6       65    228.4    176.9      100     0.000     0.000     0.000     0.000      107        0       42       25       15        1        0    15.967       75     40.0    6.387   -9.900     1.82    0.000    0.000       11        9     1997  Maize_Short_Soroca_22May_NonOptimum_26_NCC.PRM
  Tot(18)       22        5     1998    279.4    435.7   1188.1   366.50      0.0    261.5     17.9     17.9      0.0    117.5       66    246.1    188.8      100     0.000     0.000     0.000     0.000      107        0       42       25       15        1        0    14.875       75     40.0    5.951   -9.900     1.64    0.000    0.000       11        9     1998  Maize_Short_Soroca_22May_NonOptimum_26_NCC.PRM
  Tot(19)       22        5     1999    167.8    514.8   1406.8   368.14      0.0    167.8      0.0      0.0      0.0    106.3       41    257.4    202.8       94     0.000     0.000     0.000     0.000      107        0       42       25        3       16        4    15.161       66     40.5    6.147   -9.900     1.69    0.000    0.000       11        9     1999  Maize_Short_Soroca_22May_NonOptimum_26_NCC.PRM
  Tot(20)       22        5     2000    266.5    494.1   1237.4   369.41      0.0    256.4     10.1     11.7      0.0    112.2       48    270.3    209.2      100     0.000     0.000     0.000     0.000      107        0       42       25       12        2        0    16.034       74     40.0    6.415   -9.900     1.68    0.000    0.000       11        9     2000  Maize_Short_Soroca_22May_NonOptimum_26_NCC.PRM
  Tot(21)       22        5     2001    315.8    471.8   1256.9   371.07      0.0    291.7     24.1     19.9      0.0    135.7       74    285.6    222.3       96     0.000     0.000     0.000     0.000      107        0       42       25       13        1        4    15.874       71     40.0    6.346   -9.900     1.51    0.000    0.000       11        9     2001  Maize_Short_Soroca_22May_NonOptimum_26_NCC.PRM
  Tot(22)       22        5     2002    383.6    500.9   1374.8   373.16      0.0    349.5     34.1      2.8      0.0    144.8       64    295.6    230.9      100     0.000     0.000     0.000     0.000      107        0       42       25        7       10        0    16.908       73     40.1    6.781   -9.900     1.54    0.000    0.000       11        9     2002  Maize_Short_Soroca_22May_NonOptimum_26_NCC.PRM
  Tot(23)       22        5     2003    341.0    524.1   1271.7   375.80      0.0    288.4     52.6     47.8      0.0    102.3       39    266.2    205.7      100     0.000     0.000     0.000     0.000      107        0       42       25       11        4        0    15.585       73     40.0    6.236   -9.900     1.69    0.000    0.000       11        9     2003  Maize_Short_Soroca_22May_NonOptimum_26_NCC.PRM
  Tot(24)       22        5     2004    246.8    480.3   1170.9   377.49      0.0    225.9     20.9      0.0      0.0     76.1       31    243.8    191.3      100     0.000     0.000     0.000     0.000      107        0       42       25       12        7        0    15.623       72     40.1    6.267   -9.900     1.96    0.000    0.000       11        9     2004  Maize_Short_Soroca_22May_NonOptimum_26_NCC.PRM
  Tot(25)       22        5     2005    191.9    472.0   1278.0   379.80      0.0    190.3      1.6      0.5      0.0    108.7       51    269.4    207.6       99     0.000     0.000     0.000     0.000      107        0       42       25        8        5        1    16.828       74     40.2    6.767   -9.900     1.79    0.000    0.000       11        9     2005  Maize_Short_Soroca_22May_NonOptimum_26_NCC.PRM
  Tot(26)       22        5     2006    297.5    485.6   1226.9   381.90      0.0    283.3     14.2     20.3      0.0    130.8       64    286.8    223.8       99     0.000     0.000     0.000     0.000      107        0       42       25       14       11        0    16.326       73     40.5    6.614   -9.900     1.58    0.000    0.000       11        9     2006  Maize_Short_Soroca_22May_NonOptimum_26_NCC.PRM
  Tot(27)       22        5     2007    171.9    576.2   1439.4   383.77      0.0    171.9      0.0      0.0      0.0    111.7       35    248.0    196.4       90     0.000     0.000     0.000     0.000      107        0       42       25        5       24        7    13.318       59     40.8    5.428   -9.900     1.51    0.000    0.000       11        9     2007  Maize_Short_Soroca_22May_NonOptimum_26_NCC.PRM
  Tot(28)       22        5     2008    348.1    533.3   1326.6   385.59      0.0    288.2     59.9      0.7      0.0    123.6       54    317.8    247.0      100     0.000     0.000     0.000     0.000      107        0       42       25        6        6        0    17.072       73     40.0    6.829   -9.900     1.55    0.000    0.000       11        9     2008  Maize_Short_Soroca_22May_NonOptimum_26_NCC.PRM
  Tot(29)       22        5     2009    203.0    548.8   1334.5   387.37      0.0    201.4      1.6      0.3      0.0    154.6       62    265.5    208.1       86     0.000     0.000     0.000     0.000      107        0       42       25        7        8       13    13.864       60     40.0    5.545   -9.900     1.32    0.000    0.000       11        9     2009  Maize_Short_Soroca_22May_NonOptimum_26_NCC.PRM
  Tot(30)       22        5     2010    347.1    480.7   1367.9   389.85      0.0    318.5     28.6     55.2      0.0    140.3       70    283.4    218.5       98     0.000     0.000     0.000     0.000      107        0       42       25        9        1        1    16.346       74     40.0    6.546   -9.900     1.55    0.000    0.000       11        9     2010  Maize_Short_Soroca_22May_NonOptimum_26_NCC.PRM
  Tot(31)       22        5     2011    182.7    539.3   1341.3   391.63      0.0    180.8      1.9      0.0      0.0    124.7       48    270.0    210.2       91     0.000     0.000     0.000     0.000      107        0       42       25        6        7        8    15.031       65     39.9    6.003   -9.900     1.52    0.000    0.000       11        9     2011  Maize_Short_Soroca_22May_NonOptimum_26_NCC.PRM
  Tot(32)       22        5     2012    126.3    606.4   1414.1   393.82      0.0    126.0      0.3      0.0      0.0    116.6       35    223.3    177.9       79     0.000     0.000     0.000     0.000      107        0       42       25        6       25       16    11.053       48     40.4    4.462   -9.900     1.31    0.000    0.000       11        9     2012  Maize_Short_Soroca_22May_NonOptimum_26_NCC.PRM
  Tot(33)       22        5     2013    245.3    495.7   1303.4   396.48      0.0    225.7     19.6     20.7      0.0    155.8       71    237.6    185.6       86     0.000     0.000     0.000     0.000      107        0       42       25        7        9        8    13.725       60     40.2    5.519   -9.900     1.40    0.000    0.000       11        9     2013  Maize_Short_Soroca_22May_NonOptimum_26_NCC.PRM
  Tot(34)       22        5     2014    253.7    516.6   1359.2   398.55      0.0    231.9     21.8     10.0      0.0    103.5       48    307.9    237.5       99     0.000     0.000     0.000     0.000      107        0       42       25        7        2        1    17.115       74     40.0    6.846   -9.900     1.66    0.000    0.000       11        9     2014  Maize_Short_Soroca_22May_NonOptimum_26_NCC.PRM
  Tot(35)       22        5     2015     64.6    613.4   1397.9   401.00      0.0     64.6      0.0      0.0      0.0     90.2       24    179.8    145.4       77     0.000     0.000     0.000     0.000       97        0       42       25        5       28       19     8.464       37     34.0    2.879   -9.900     1.11    0.000    0.000       11        9     2015  Maize_Short_Soroca_22May_NonOptimum_26_NCC.PRM
  Tot(36)       22        5     2016    223.5    541.1   1411.6   403.00      0.0    221.3      2.2      0.5      0.0    172.0       75    271.0    211.5       84     0.000     0.000     0.000     0.000      107        0       42       25        5       16       13    13.971       59     40.4    5.644   -9.900     1.27    0.000    0.000       11        9     2016  Maize_Short_Soroca_22May_NonOptimum_26_NCC.PRM
  Tot(37)       22        5     2017    190.2    557.9   1350.9   405.00      0.0    188.7      1.5      0.3      0.0    148.1       57    258.0    202.0       86     0.000     0.000     0.000     0.000      107        0       42       25        6       12       13    13.595       59     40.1    5.452   -9.900     1.34    0.000    0.000       11        9     2017  Maize_Short_Soroca_22May_NonOptimum_26_NCC.PRM
  Tot(38)       22        5     2018    247.0    517.0   1451.6   408.00      0.0    234.6     12.4      7.5      0.0    111.3       46    293.2    226.7       99     0.000     0.000     0.000     0.000      107        0       42       25        4        3        1    17.303       73     40.0    6.920   -9.900     1.71    0.000    0.000       11        9     2018  Maize_Short_Soroca_22May_NonOptimum_26_NCC.PRM
  Tot(39)       22        5     2019    224.9    551.2   1441.3   410.00      0.0    207.2     17.7     24.8      0.0    162.1       65    244.6    191.7       82     0.000     0.000     0.000     0.000      107        0       42       25        3        9       16    13.361       57     39.6    5.296   -9.900     1.30    0.000    0.000       11        9     2019  Maize_Short_Soroca_22May_NonOptimum_26_NCC.PRM
  Tot(40)       22        5     2020    217.5    471.5   1160.0   412.00      0.0    211.1      6.4      9.2      0.0    141.9       68    248.4    190.7       98     0.000     0.000     0.000     0.000      107        0       42       25       13        4        1    15.779       74     40.1    6.326   -9.900     1.62    0.000    0.000       11        9     2020  Maize_Short_Soroca_22May_NonOptimum_26_NCC.PRM
  Tot(41)       22        5     2021    176.2    503.8   1065.8   414.00      0.0    153.4     22.8     23.6      0.0    130.6       62    219.3    172.2       81     0.000     0.000     0.000     0.000      107        0       42       25       21        6       18    11.633       54     39.5    4.592   -9.900     1.31    0.000    0.000       11        9     2021  Maize_Short_Soroca_22May_NonOptimum_26_NCC.PRM
  Tot(42)       22        5     2022    167.4    607.8   1428.7   417.00      0.0    163.5      3.9      9.2      0.0    151.1       47    214.5    170.3       76     0.000     0.000     0.000     0.000      107        0       42       25        4       24       20    10.037       42     40.2    4.032   -9.900     1.10    0.000    0.000       11        9     2022  Maize_Short_Soroca_22May_NonOptimum_26_NCC.PRM
  Tot(43)       22        5     2023    208.6    498.1   1197.1   419.00      0.0    202.3      6.3     15.8      0.0    144.4       70    250.4    195.3       89     0.000     0.000     0.000     0.000      107        0       42       25       11       13        9    13.966       64     40.3    5.622   -9.900     1.42    0.000    0.000       11        9     2023  Maize_Short_Soroca_22May_NonOptimum_26_NCC.PRM
  Tot(44)       22        5     2024     91.5    526.5   1151.6   421.00      0.0     89.9      1.6      1.3      0.0    109.1       44    198.6    156.1       79     0.000     0.000     0.000     0.000      102        0       42       25       16       15       19    10.533       47     38.6    4.066   -9.900     1.33    0.000    0.000       11        9     2024  Maize_Short_Soroca_22May_NonOptimum_26_NCC.PRM
  Tot(45)       22        5     2025    226.4    486.6   1206.9   423.00      0.0    211.9     14.5     36.8      0.0    133.5       72    246.3    191.0       84     0.000     0.000     0.000     0.000      107        0       42       25       14        8       11    13.306       58     39.8    5.296   -9.900     1.39    0.000    0.000       11        9     2025  Maize_Short_Soroca_22May_NonOptimum_26_NCC.PRM
  Tot(46)       22        5     2026    198.8    516.3   1117.7   424.00      0.0    194.8      4.0      2.9      0.0    152.2       69    232.3    181.6       83     0.000     0.000     0.000     0.000      107        0       42       25       17       10       10    12.317       59     40.1    4.936   -9.900     1.28    0.000    0.000       11        9     2026  Maize_Short_Soroca_22May_NonOptimum_26_NCC.PRM
  Tot(47)       22        5     2027    208.4    566.8   1386.8   426.00      0.0    208.4      0.0      0.0      0.0    176.3       68    250.6    197.3       82     0.000     0.000     0.000     0.000      107        0       42       25        5       14       17    12.313       52     39.7    4.885   -9.900     1.14    0.000    0.000       11        9     2027  Maize_Short_Soroca_22May_NonOptimum_26_NCC.PRM
  Tot(48)       22        5     2028    183.3    551.2   1300.6   428.00      0.0    182.6      0.7      0.0      0.0    105.2       43    294.8    230.0       91     0.000     0.000     0.000     0.000      107        0       42       25       10       12        7    15.710       66     40.2    6.309   -9.900     1.58    0.000    0.000       11        9     2028  Maize_Short_Soroca_22May_NonOptimum_26_NCC.PRM
  Tot(49)       22        5     2029    277.2    422.4    950.0   429.00      0.0    242.4     34.8     47.4      0.0    124.1       77    236.3    182.3      100     0.000     0.000     0.000     0.000      107        0       42       25       24        0        0    15.153       75     40.0    6.064   -9.900     1.68    0.000    0.000       11        9     2029  Maize_Short_Soroca_22May_NonOptimum_26_NCC.PRM
  Tot(50)       22        5     2030    191.1    579.6   1298.5   431.00      0.0    183.5      7.6      0.0      0.0    117.2       44    272.5    213.3       88     0.000     0.000     0.000     0.000      107        0       42       25       10        9       11    13.789       61     39.7    5.476   -9.900     1.41    0.000    0.000       11        9     2030  Maize_Short_Soroca_22May_NonOptimum_26_NCC.PRM
  Tot(51)       22        5     2031    102.0    600.5   1385.3   432.00      0.0    101.9      0.1      0.0      0.0    118.0       37    199.9    158.1       76     0.000     0.000     0.000     0.000       97        0       42       25        6       22       20     9.534       39     33.8    3.221   -9.900     1.02    0.000    0.000       11        9     2031  Maize_Short_Soroca_22May_NonOptimum_26_NCC.PRM
  Tot(52)       22        5     2032    150.6    515.6   1259.3   433.00      0.0    148.5      2.1      2.1      0.0    120.9       58    247.7    192.1       83     0.000     0.000     0.000     0.000      107        0       42       25       10        4       14    13.616       59     39.5    5.381   -9.900     1.46    0.000    0.000       11        9     2032  Maize_Short_Soroca_22May_NonOptimum_26_NCC.PRM
  Tot(53)       22        5     2033    149.4    504.6   1187.4   435.00      0.0    149.0      0.4      0.0      0.0    116.1       56    239.0    186.5       83     0.000     0.000     0.000     0.000      107        0       42       25       14       10       13    13.088       58     40.2    5.266   -9.900     1.48    0.000    0.000       11        9     2033  Maize_Short_Soroca_22May_NonOptimum_26_NCC.PRM
  Tot(54)       22        5     2034    282.7    485.6   1090.4   436.00      0.0    250.7     32.0     44.0      0.0    146.8       77    252.5    195.5       93     0.000     0.000     0.000     0.000      107        0       42       25       19        4        5    14.061       69     40.2    5.658   -9.900     1.42    0.000    0.000       11        9     2034  Maize_Short_Soroca_22May_NonOptimum_26_NCC.PRM
  Tot(55)       22        5     2035    158.8    537.4   1196.2   437.00      0.0    157.2      1.6      0.0      0.0    109.1       47    256.5    199.9       87     0.000     0.000     0.000     0.000      107        0       42       25       15        5       12    13.527       61     39.7    5.369   -9.900     1.47    0.000    0.000       11        9     2035  Maize_Short_Soroca_22May_NonOptimum_26_NCC.PRM
  Tot(56)       22        5     2036    218.3    457.2   1052.2   438.00      0.0    207.3     11.0     21.9      0.0    118.5       64    250.8    194.1       99     0.000     0.000     0.000     0.000      107        0       42       25       21        2        1    15.436       74     40.1    6.189   -9.900     1.68    0.000    0.000       11        9     2036  Maize_Short_Soroca_22May_NonOptimum_26_NCC.PRM
  Tot(57)       22        5     2037    134.3    506.4   1254.2   438.00      0.0    130.6      3.7      7.2      0.0    117.3       52    226.3    176.5       83     0.000     0.000     0.000     0.000      107        0       42       25        7        9       16    13.076       56     39.7    5.185   -9.900     1.51    0.000    0.000       11        9     2037  Maize_Short_Soroca_22May_NonOptimum_26_NCC.PRM
  Tot(58)       22        5     2038    157.4    587.7   1369.0   439.00      0.0    154.8      2.6      0.7      0.0    147.4       48    222.4    174.6       80     0.000     0.000     0.000     0.000      103        0       42       25        5       14       18    11.167       50     39.8    4.443   -9.900     1.21    0.000    0.000       11        9     2038  Maize_Short_Soroca_22May_NonOptimum_26_NCC.PRM
  Tot(59)       22        5     2039    173.1    466.2   1082.5   440.00      0.0    171.5      1.6      0.0      0.0    107.9       51    237.0    182.9       99     0.000     0.000     0.000     0.000      107        0       42       25       18        6        0    14.659       73     40.3    5.908   -9.900     1.71    0.000    0.000       11        9     2039  Maize_Short_Soroca_22May_NonOptimum_26_NCC.PRM
  Tot(60)       22        5     2040    104.3    636.2   1429.4   440.00      0.0    104.1      0.2      0.0      0.0    123.7       37    197.0    155.9       72     0.000     0.000     0.000     0.000       94        0       42       25        6       21       21     8.860       37     30.7    2.722   -9.900     0.86    0.000    0.000       11        9     2040  Maize_Short_Soroca_22May_NonOptimum_26_NCC.PRM
  Tot(61)       22        5     2041    278.6    406.6   1037.6   441.00      0.0    272.3      6.3     12.4      0.0    139.2       83    225.5    173.9      100     0.000     0.000     0.000     0.000      107        0       42       25       19        1        0    15.987       75     40.1    6.404   -9.900     1.76    0.000    0.000       11        9     2041  Maize_Short_Soroca_22May_NonOptimum_26_NCC.PRM
  Tot(62)       22        5     2042    109.9    552.7   1283.8   441.00      0.0    109.9      0.0      0.0      0.0    111.4       39    187.1    148.9       75     0.000     0.000     0.000     0.000       94        0       42       25        9       24       19     9.095       39     31.1    2.828   -9.900     0.98    0.000    0.000       11        9     2042  Maize_Short_Soroca_22May_NonOptimum_26_NCC.PRM
  Tot(63)       22        5     2043    174.5    479.3   1144.5   441.00      0.0    161.3     13.2     19.8      0.0    122.0       64    240.5    186.5       86     0.000     0.000     0.000     0.000      107        0       42       25       12        9       10    14.679       64     40.1    5.888   -9.900     1.62    0.000    0.000       11        9     2043  Maize_Short_Soroca_22May_NonOptimum_26_NCC.PRM
  Tot(64)       22        5     2044    162.0    537.4   1227.1   442.00      0.0    153.9      8.1     21.3      0.0    136.5       60    217.3    170.7       76     0.000     0.000     0.000     0.000      107        0       42       25       13       18       21    11.191       49     39.8    4.459   -9.900     1.26    0.000    0.000       11        9     2044  Maize_Short_Soroca_22May_NonOptimum_26_NCC.PRM
  Tot(65)       22        5     2045    149.3    511.9   1184.8   442.00      0.0    138.7     10.6     24.8      0.0    132.3       55    198.6    155.9       80     0.000     0.000     0.000     0.000      103        0       42       25       11       15       19    11.049       50     39.8    4.399   -9.900     1.35    0.000    0.000       11        9     2045  Maize_Short_Soroca_22May_NonOptimum_26_NCC.PRM
  Tot(66)       22        5     2046    129.1    605.9   1403.8   442.00      0.0    127.7      1.4      1.9      0.0    142.4       46    197.4    155.4       74     0.000     0.000     0.000     0.000       94        0       42       25        3       19       20     9.404       40     30.9    2.902   -9.900     0.87    0.000    0.000       11        9     2046  Maize_Short_Soroca_22May_NonOptimum_26_NCC.PRM
  Tot(67)       22        5     2047    242.6    426.3   1056.6   442.00      0.0    224.8     17.8     26.4      0.0    148.0       84    228.4    176.4       99     0.000     0.000     0.000     0.000      107        0       42       25       17        1        1    15.735       75     40.1    6.307   -9.900     1.68    0.000    0.000       11        9     2047  Maize_Short_Soroca_22May_NonOptimum_26_NCC.PRM
  Tot(68)       22        5     2048    171.4    495.1   1207.8   442.00      0.0    168.0      3.4      0.0      0.0    121.8       50    231.8    180.5       91     0.000     0.000     0.000     0.000      107        0       42       25       12       14        4    13.996       66     40.6    5.686   -9.900     1.61    0.000    0.000       11        9     2048  Maize_Short_Soroca_22May_NonOptimum_26_NCC.PRM
  Tot(69)       22        5     2049    203.6    518.8   1236.4   443.00      0.0    191.4     12.2     14.5      0.0    140.5       56    223.6    177.1       84     0.000     0.000     0.000     0.000      107        0       42       25        9       22       10    13.051       58     40.6    5.299   -9.900     1.46    0.000    0.000       11        9     2049  Maize_Short_Soroca_22May_NonOptimum_26_NCC.PRM
  Tot(70)       22        5     2050     82.2    550.9   1292.6   443.00      0.0     82.2      0.0      0.0      0.0    105.4       36    181.7    144.7       75     0.000     0.000     0.000     0.000       98        0       42       25        9       21       19     9.454       40     34.9    3.302   -9.900     1.18    0.000    0.000       11        9     2050  Maize_Short_Soroca_22May_NonOptimum_26_NCC.PRM
  Tot(71)       22        5     2051    155.6    512.8   1254.6   443.00      0.0    150.6      5.0      8.1      0.0    132.7       57    218.2    171.0       81     0.000     0.000     0.000     0.000      107        0       42       25       10       15       16    11.794       52     40.3    4.755   -9.900     1.36    0.000    0.000       11        9     2051  Maize_Short_Soroca_22May_NonOptimum_26_NCC.PRM
  Tot(72)       22        5     2052    326.7    439.8   1082.3   443.00      0.0    285.6     41.1     35.0      0.0    119.1       59    222.1    171.2      100     0.000     0.000     0.000     0.000      107        0       42       25       20        3        0    15.238       75     40.2    6.122   -9.900     1.79    0.000    0.000       11        9     2052  Maize_Short_Soroca_22May_NonOptimum_26_NCC.PRM
  Tot(73)       22        5     2053    202.2    476.2   1204.6   443.00      0.0    195.5      6.7      9.4      0.0    139.7       73    237.6    185.1       86     0.000     0.000     0.000     0.000      107        0       42       25       11        9        9    13.843       61     40.2    5.560   -9.900     1.47    0.000    0.000       11        9     2053  Maize_Short_Soroca_22May_NonOptimum_26_NCC.PRM
  Tot(74)       22        5     2054    109.3    604.7   1305.7   443.00      0.0    108.1      1.2      0.0      0.0    134.4       39    178.5    143.2       75     0.000     0.000     0.000     0.000       94        0       42       25        6       25       19     8.465       36     31.0    2.628   -9.900     0.85    0.000    0.000       11        9     2054  Maize_Short_Soroca_22May_NonOptimum_26_NCC.PRM
  Tot(75)       22        5     2055    136.6    529.1   1248.4   443.00      0.0    136.3      0.3      0.0      0.0    114.4       50    225.5    175.8       79     0.000     0.000     0.000     0.000      107        0       42       25       12       13       17    11.809       52     40.0    4.724   -9.900     1.39    0.000    0.000       11        9     2055  Maize_Short_Soroca_22May_NonOptimum_26_NCC.PRM
  Tot(76)       22        5     2056    247.2    520.4   1258.2   442.00      0.0    242.4      4.8      0.2      0.0    134.4       60    276.3    214.2       92     0.000     0.000     0.000     0.000      107        0       42       25       12        4        6    15.398       67     40.0    6.165   -9.900     1.50    0.000    0.000       11        9     2056  Maize_Short_Soroca_22May_NonOptimum_26_NCC.PRM
  Tot(77)       22        5     2057    300.9    481.8   1283.4   442.00      0.0    291.9      9.0      9.6      0.0    169.0       81    278.7    216.1      100     0.000     0.000     0.000     0.000      107        0       42       25        8        1        0    17.261       75     40.0    6.911   -9.900     1.54    0.000    0.000       11        9     2057  Maize_Short_Soroca_22May_NonOptimum_26_NCC.PRM
  Tot(78)       22        5     2058    164.2    538.8   1334.2   442.00      0.0    164.1      0.1      0.0      0.0    124.2       44    238.6    189.0       90     0.000     0.000     0.000     0.000      107        0       42       25        9       23        8    13.372       58     40.4    5.397   -9.900     1.49    0.000    0.000       11        9     2058  Maize_Short_Soroca_22May_NonOptimum_26_NCC.PRM
  Tot(79)       22        5     2059    166.5    509.3   1218.3   442.00      0.0    164.4      2.1      2.1      0.0    129.7       58    244.2    190.4       90     0.000     0.000     0.000     0.000      107        0       42       25       12       10        9    13.895       64     40.4    5.607   -9.900     1.50    0.000    0.000       11        9     2059  Maize_Short_Soroca_22May_NonOptimum_26_NCC.PRM
  Tot(80)       22        5     2060    128.3    507.5   1242.2   442.00      0.0    127.4      0.9      0.1      0.0    116.3       54    230.0    180.4       82     0.000     0.000     0.000     0.000      107        0       42       25       11       11       16    12.826       56     39.8    5.110   -9.900     1.48    0.000    0.000       11        9     2060  Maize_Short_Soroca_22May_NonOptimum_26_NCC.PRM
  Tot(81)       22        5     2061     97.3    582.1   1281.3   441.00      0.0     96.6      0.7      0.4      0.0    113.7       35    191.8    153.1       79     0.000     0.000     0.000     0.000      107        0       42       25        8       28       20     9.396       40     40.2    3.776   -9.900     1.24    0.000    0.000       11        9     2061  Maize_Short_Soroca_22May_NonOptimum_26_NCC.PRM
  Tot(82)       22        5     2062    143.5    556.8   1230.7   441.00      0.0    143.5      0.0      0.0      0.0    109.7       40    242.1    189.7       85     0.000     0.000     0.000     0.000      107        0       42       25       11       20       11    13.177       58     40.4    5.318   -9.900     1.51    0.000    0.000       11        9     2062  Maize_Short_Soroca_22May_NonOptimum_26_NCC.PRM
  Tot(83)       22        5     2063     73.1    631.4   1326.0   441.00      0.0     73.1      0.0      0.0      0.0     99.9       29    182.9    145.6       72     0.000     0.000     0.000     0.000       90        0       42       25       11       25       21     8.054       33     26.9    2.170   -9.900     0.79    0.000    0.000       11        9     2063  Maize_Short_Soroca_22May_NonOptimum_26_NCC.PRM
  Tot(84)       22        5     2064    176.4    533.6   1269.4   440.00      0.0    170.3      6.1      8.8      0.0    130.0       54    245.2    191.5       85     0.000     0.000     0.000     0.000      107        0       42       25       12       12       13    13.146       59     39.9    5.246   -9.900     1.40    0.000    0.000       11        9     2064  Maize_Short_Soroca_22May_NonOptimum_26_NCC.PRM
  Tot(85)       22        5     2065    124.9    551.9   1256.5   440.00      0.0    122.5      2.4      4.6      0.0    122.1       50    220.4    171.9       77     0.000     0.000     0.000     0.000      107        0       42       25        8        8       19    11.803       51     39.0    4.601   -9.900     1.34    0.000    0.000       11        9     2065  Maize_Short_Soroca_22May_NonOptimum_26_NCC.PRM
  Tot(86)       22        5     2066     91.3    633.5   1323.2   440.00      0.0     84.3      7.0      9.3      0.0     98.6       26    184.2    147.1       75     0.000     0.000     0.000     0.000       93        0       42       25        6       27       19     8.249       35     30.3    2.496   -9.900     0.89    0.000    0.000       11        9     2066  Maize_Short_Soroca_22May_NonOptimum_26_NCC.PRM
  Tot(87)       22        5     2067    144.1    511.0   1240.3   439.00      0.0    143.1      1.0      0.0      0.0    127.2       48    197.9    157.1       82     0.000     0.000     0.000     0.000      107        0       42       25       13       25       13    10.652       49     40.5    4.311   -9.900     1.33    0.000    0.000       11        9     2067  Maize_Short_Soroca_22May_NonOptimum_26_NCC.PRM
  Tot(88)       22        5     2068    287.0    502.0   1310.4   439.00      0.0    278.5      8.5     13.1      0.0    154.2       77    307.7    237.9       98     0.000     0.000     0.000     0.000      107        0       42       25        8        8        2    17.562       73     40.4    7.103   -9.900     1.54    0.000    0.000       11        9     2068  Maize_Short_Soroca_22May_NonOptimum_26_NCC.PRM
  Tot(89)       22        5     2069    168.8    574.8   1295.6   438.00      0.0    160.7      8.1     14.7      0.0    133.6       46    213.8    170.8       78     0.000     0.000     0.000     0.000      101        0       42       25       11       22       19    10.106       45     37.6    3.798   -9.900     1.11    0.000    0.000       11        9     2069  Maize_Short_Soroca_22May_NonOptimum_26_NCC.PRM
  Tot(90)       22        5     2070    194.7    541.7   1290.6   437.00      0.0    183.1     11.6     13.6      0.0    149.1       61    237.3    185.2       82     0.000     0.000     0.000     0.000      107        0       42       25        9       10       14    13.163       58     39.8    5.245   -9.900     1.36    0.000    0.000       11        9     2070  Maize_Short_Soroca_22May_NonOptimum_26_NCC.PRM
  Tot(91)       22        5     2071    112.6    538.7   1249.1   437.00      0.0    112.4      0.2      0.0      0.0    109.3       42    218.3    171.1       80     0.000     0.000     0.000     0.000      107        0       42       25       10       15       15    12.327       55     40.1    4.949   -9.900     1.51    0.000    0.000       11        9     2071  Maize_Short_Soroca_22May_NonOptimum_26_NCC.PRM
  Tot(92)       22        5     2072    262.8    441.9   1168.9   436.00      0.0    247.4     15.4     32.3      0.0    137.9       81    257.1    199.1       99     0.000     0.000     0.000     0.000      107        0       42       25        9        0        1    16.656       75     40.0    6.666   -9.900     1.69    0.000    0.000       11        9     2072  Maize_Short_Soroca_22May_NonOptimum_26_NCC.PRM
  Tot(93)       22        5     2073    118.1    574.4   1296.0   436.00      0.0    114.6      3.5     12.9      0.0    119.9       40    191.2    151.6       77     0.000     0.000     0.000     0.000       95        0       42       25        9       24       19     9.049       38     32.0    2.898   -9.900     0.94    0.000    0.000       11        9     2073  Maize_Short_Soroca_22May_NonOptimum_26_NCC.PRM
  Tot(94)       22        5     2074    233.6    428.9   1110.8   435.00      0.0    227.8      5.8      3.5      0.0    108.0       54    214.8    164.9      100     0.000     0.000     0.000     0.000      107        0       42       25       17        2        0    14.997       74     40.0    6.000   -9.900     1.86    0.000    0.000       11        9     2074  Maize_Short_Soroca_22May_NonOptimum_26_NCC.PRM
  Tot(95)       22        5     2075    156.6    548.7   1289.7   435.00      0.0    155.6      1.0      0.0      0.0    123.0       47    248.9    196.2       85     0.000     0.000     0.000     0.000      107        0       42       25        7       17       11    13.817       60     40.4    5.579   -9.900     1.50    0.000    0.000       11        9     2075  Maize_Short_Soroca_22May_NonOptimum_26_NCC.PRM
  Tot(96)       22        5     2076    277.8    523.7   1225.0   434.00      0.0    267.9      9.9     12.6      0.0    168.7       76    254.9    198.2       87     0.000     0.000     0.000     0.000      107        0       42       25       14       10        8    13.347       63     40.4    5.398   -9.900     1.27    0.000    0.000       11        9     2076  Maize_Short_Soroca_22May_NonOptimum_26_NCC.PRM
  Tot(97)       22        5     2077    273.1    439.5   1118.2   433.00      0.0    269.3      3.8      2.9      0.0    129.7       70    235.1    183.6      100     0.000     0.000     0.000     0.000      107        0       42       25       18        2        0    15.557       75     40.0    6.224   -9.900     1.71    0.000    0.000       11        9     2077  Maize_Short_Soroca_22May_NonOptimum_26_NCC.PRM
  Tot(98)       22        5     2078    165.6    568.2   1327.9   433.00      0.0    163.8      1.8      4.5      0.0    132.8       51    218.9    172.3       74     0.000     0.000     0.000     0.000      107        0       42       25        8       17       19    11.226       49     39.3    4.411   -9.900     1.25    0.000    0.000       11        9     2078  Maize_Short_Soroca_22May_NonOptimum_26_NCC.PRM
  Tot(99)       22        5     2079    106.9    592.7   1261.6   432.00      0.0    104.8      2.1      1.0      0.0    125.1       36    182.5    145.2       77     0.000     0.000     0.000     0.000       94        0       42       25       10       26       19     8.405       36     31.4    2.637   -9.900     0.88    0.000    0.000       11        9     2079  Maize_Short_Soroca_22May_NonOptimum_26_NCC.PRM
 Tot(100)       22        5     2080    140.0    550.4   1291.2   432.00      0.0    139.2      0.8      1.4      0.0    147.0       53    199.6    157.3       77     0.000     0.000     0.000     0.000      107        0       42       25        7       20       20    10.137       44     38.2    3.868   -9.900     1.12    0.000    0.000       11        9     2080  Maize_Short_Soroca_22May_NonOptimum_26_NCC.PRM
 Tot(101)       22        5     2081    248.6    521.2   1270.2   431.00      0.0    228.0     20.6     39.5      0.0    161.9       72    246.7    191.8       86     0.000     0.000     0.000     0.000      107        0       42       25        7        6       14    13.746       60     39.9    5.478   -9.900     1.34    0.000    0.000       11        9     2081  Maize_Short_Soroca_22May_NonOptimum_26_NCC.PRM
 Tot(102)       22        5     2082    230.9    460.1   1172.0   431.00      0.0    224.0      6.9     14.7      0.0    128.5       64    252.8    195.6      100     0.000     0.000     0.000     0.000      107        0       42       25       11        3        0    16.509       75     40.1    6.622   -9.900     1.74    0.000    0.000       11        9     2082  Maize_Short_Soroca_22May_NonOptimum_26_NCC.PRM
 Tot(103)       22        5     2083    172.8    524.3   1265.3   430.00      0.0    171.9      0.9      0.0      0.0    118.3       55    270.2    210.4       88     0.000     0.000     0.000     0.000      107        0       42       25        8        5       11    14.476       63     39.9    5.774   -9.900     1.49    0.000    0.000       11        9     2083  Maize_Short_Soroca_22May_NonOptimum_26_NCC.PRM
 Tot(104)       22        5     2084    171.5    572.7   1432.8   429.00      0.0    167.6      3.9      0.0      0.0    127.9       44    245.8    194.8       85     0.000     0.000     0.000     0.000      107        0       42       25        4       26       11    13.092       55     40.7    5.327   -9.900     1.43    0.000    0.000       11        9     2084  Maize_Short_Soroca_22May_NonOptimum_26_NCC.PRM
 Tot(105)       22        5     2085    214.0    492.6   1151.6   429.00      0.0    205.6      8.4     13.3      0.0    111.5       53    253.6    197.8       95     0.000     0.000     0.000     0.000      107        0       42       25       14        7        3    14.333       69     40.3    5.778   -9.900     1.58    0.000    0.000       11        9     2085  Maize_Short_Soroca_22May_NonOptimum_26_NCC.PRM
 Tot(106)       22        5     2086    116.8    603.3   1353.5   428.00      0.0    116.6      0.2      0.0      0.0    127.4       37    176.6    141.1       71     0.000     0.000     0.000     0.000       89        0       42       25        5       28       21     7.421       33     26.1    1.936   -9.900     0.68    0.000    0.000       11        9     2086  Maize_Short_Soroca_22May_NonOptimum_26_NCC.PRM
 Tot(107)       22        5     2087    152.5    506.1   1161.9   428.00      0.0    151.4      1.1      0.0      0.0    124.1       56    237.4    184.6       86     0.000     0.000     0.000     0.000      107        0       42       25       15       10       10    13.440       60     40.3    5.418   -9.900     1.50    0.000    0.000       11        9     2087  Maize_Short_Soroca_22May_NonOptimum_26_NCC.PRM
 Tot(108)       22        5     2088    318.2    454.7   1113.5   427.00      0.0    290.4     27.8     51.2      0.0    156.4       85    258.3    199.5      100     0.000     0.000     0.000     0.000      107        0       42       25       16        4        0    16.123       75     40.3    6.491   -9.900     1.57    0.000    0.000       11        9     2088  Maize_Short_Soroca_22May_NonOptimum_26_NCC.PRM
 Tot(109)       22        5     2089    194.6    525.2   1201.9   427.00      0.0    177.6     17.0      0.3      0.0    135.0       54    203.0    160.7       78     0.000     0.000     0.000     0.000      102        0       42       25        8       17       18    10.877       47     39.0    4.246   -9.900     1.27    0.000    0.000       11        9     2089  Maize_Short_Soroca_22May_NonOptimum_26_NCC.PRM
 Tot(110)       22        5     2090    156.6    474.3   1111.5   426.00      0.0    142.2     14.4     18.9      0.0    101.8       48    230.0    178.5       92     0.000     0.000     0.000     0.000      107        0       42       25       13       10        7    14.179       66     40.3    5.714   -9.900     1.72    0.000    0.000       11        9     2090  Maize_Short_Soroca_22May_NonOptimum_26_NCC.PRM
 Tot(111)       22        5     2091    219.1    504.2   1199.7   425.00      0.0    204.3     14.8      0.0      0.0    107.1       46    258.9    202.1       97     0.000     0.000     0.000     0.000      107        0       42       25       16       17        2    14.698       69     40.8    6.000   -9.900     1.64    0.000    0.000       11        9     2091  Maize_Short_Soroca_22May_NonOptimum_26_NCC.PRM
 Tot(112)       22        5     2092    203.7    471.6   1186.0   425.00      0.0    197.6      6.1     19.0      0.0    113.9       56    254.4    197.1       95     0.000     0.000     0.000     0.000      107        0       42       25       10        7        4    15.676       69     40.2    6.294   -9.900     1.71    0.000    0.000       11        9     2092  Maize_Short_Soroca_22May_NonOptimum_26_NCC.PRM
 Tot(113)       22        5     2093    235.2    481.7   1135.8   424.00      0.0    227.7      7.5      3.3      0.0    120.5       56    264.1    205.7      100     0.000     0.000     0.000     0.000      107        0       42       25       14        2        0    16.290       75     40.0    6.522   -9.900     1.70    0.000    0.000       11        9     2093  Maize_Short_Soroca_22May_NonOptimum_26_NCC.PRM
 Tot(114)       22        5     2094    163.4    639.3   1444.6   424.00      0.0    155.4      8.0      2.4      0.0    124.3       29    187.9    154.1       84     0.000     0.000     0.000     0.000      107        0       42       25        5       39        8     8.781       38     40.7    3.577   -9.900     1.15    0.000    0.000       11        9     2094  Maize_Short_Soroca_22May_NonOptimum_26_NCC.PRM
 Tot(115)       22        5     2095    219.4    544.3   1251.0   423.00      0.0    198.4     21.0      0.0      0.0    104.1       39    280.4    218.6       99     0.000     0.000     0.000     0.000      107        0       42       25       11        8        1    15.468       71     40.1    6.198   -9.900     1.61    0.000    0.000       11        9     2095  Maize_Short_Soroca_22May_NonOptimum_26_NCC.PRM
 Tot(116)       22        5     2096    242.2    417.8   1040.1   423.00      0.0    230.2     12.0     22.9      0.0    120.9       75    240.4    186.6      100     0.000     0.000     0.000     0.000      107        0       42       25       24        1        0    15.780       75     40.1    6.323   -9.900     1.75    0.000    0.000       11        9     2096  Maize_Short_Soroca_22May_NonOptimum_26_NCC.PRM
 Tot(117)       22        5     2097    156.8    522.5   1230.5   422.00      0.0    156.7      0.1      0.0      0.0    135.1       58    240.4    187.8       83     0.000     0.000     0.000     0.000      107        0       42       25       13       13       14    13.421       58     40.1    5.387   -9.900     1.43    0.000    0.000       11        9     2097  Maize_Short_Soroca_22May_NonOptimum_26_NCC.PRM
 Tot(118)       22        5     2098    198.1    500.0   1150.8   422.00      0.0    192.7      5.4      6.9      0.0    140.0       66    237.7    184.7       86     0.000     0.000     0.000     0.000      107        0       42       25       15        8        9    13.115       61     40.0    5.246   -9.900     1.39    0.000    0.000       11        9     2098  Maize_Short_Soroca_22May_NonOptimum_26_NCC.PRM
 Tot(119)       22        5     2099    209.1    501.3   1302.4   421.00      0.0    207.4      1.7      0.7      0.0    134.3       62    274.1    212.8       95     0.000     0.000     0.000     0.000      107        0       42       25        7        7        4    16.124       70     40.3    6.493   -9.900     1.59    0.000    0.000       11        9     2099  Maize_Short_Soroca_22May_NonOptimum_26_NCC.PRM
