AquaCrop 7.0 (August 2022) - Output created on (date) : 24-11-2022   at (time) : 10:03:29

    RunNr     Day1   Month1    Year1     Rain      ETo       GD     CO2      Irri   Infilt   Runoff    Drain   Upflow        E     E/Ex       Tr      TrW   Tr/Trx    SaltIn   SaltOut    SaltUp  SaltProf     Cycle   SaltStr  FertStr  WeedStr  TempStr   ExpStr   StoStr  BioMass  Brelative   HI    Y(dry)  Y(fresh)    WPet      Bin     Bout     DayN   MonthN    YearN
                                           mm       mm  degC.day    ppm        mm       mm       mm       mm       mm       mm        %       mm       mm        %    ton/ha    ton/ha    ton/ha    ton/ha      days       %        %        %        %        %        %    ton/ha        %       %    ton/ha   ton/ha    kg/m3   ton/ha   ton/ha
   Tot(1)        7        5     1981    178.8    503.2   1241.2   340.11      0.0    170.0      8.8     19.7      0.0     88.2       42    267.5    207.1       89     0.000     0.000     0.000     0.000      107        0       42       25       11        5        8    14.212       65     39.7    5.643   -9.900     1.59    0.000    0.000       27        8     1981  Maize_short_Cahul_7May_NonOptimum_85_MOHC.PRM
   Tot(2)        7        5     1982    226.7    493.1   1253.0   341.22      0.0    226.0      0.7      0.0      0.0    101.4       45    280.6    216.3      100     0.000     0.000     0.000     0.000      107        0       42       25        8        3        0    16.329       74     40.0    6.536   -9.900     1.71    0.000    0.000       27        8     1982  Maize_short_Cahul_7May_NonOptimum_85_MOHC.PRM
   Tot(3)        7        5     1983    290.7    494.4   1282.6   342.84      0.0    264.2     26.5     26.7      0.0    101.9       47    287.3    222.1      100     0.000     0.000     0.000     0.000      107        0       42       25        6        3        0    16.444       74     40.1    6.592   -9.900     1.69    0.000    0.000       27        8     1983  Maize_short_Cahul_7May_NonOptimum_85_MOHC.PRM
   Tot(4)        7        5     1984    204.3    469.3   1125.8   344.40      0.0    202.8      1.5      3.1      0.0    133.4       69    263.3    205.4       97     0.000     0.000     0.000     0.000      107        0       42       25       13        2        2    15.311       73     40.1    6.136   -9.900     1.55    0.000    0.000       27        8     1984  Maize_short_Cahul_7May_NonOptimum_85_MOHC.PRM
   Tot(5)        7        5     1985    289.7    484.3   1225.0   345.87      0.0    263.2     26.5     42.7      0.0    114.2       55    279.7    214.5      100     0.000     0.000     0.000     0.000      107        0       42       25       10        1        0    15.946       75     40.0    6.379   -9.900     1.62    0.000    0.000       27        8     1985  Maize_short_Cahul_7May_NonOptimum_85_MOHC.PRM
   Tot(6)        7        5     1986    152.5    543.3   1305.4   347.19      0.0    151.8      0.7      0.0      0.0    106.4       45    261.7    205.8       84     0.000     0.000     0.000     0.000      107        0       42       25        5        8       11    13.631       61     39.6    5.397   -9.900     1.47    0.000    0.000       27        8     1986  Maize_short_Cahul_7May_NonOptimum_85_MOHC.PRM
   Tot(7)        7        5     1987    241.4    495.3   1193.7   348.98      0.0    233.0      8.4      0.0      0.0     96.8       50    305.7    234.9       99     0.000     0.000     0.000     0.000      107        0       42       25       13        4        1    16.129       74     40.1    6.467   -9.900     1.61    0.000    0.000       27        8     1987  Maize_short_Cahul_7May_NonOptimum_85_MOHC.PRM
   Tot(8)        7        5     1988    149.9    506.2   1303.3   351.45      0.0    148.7      1.2      3.3      0.0    130.7       64    236.1    186.4       80     0.000     0.000     0.000     0.000      107        0       42       25        8        8       18    12.055       53     39.2    4.726   -9.900     1.29    0.000    0.000       27        8     1988  Maize_short_Cahul_7May_NonOptimum_85_MOHC.PRM
   Tot(9)        7        5     1989    201.9    495.5   1205.1   352.89      0.0    201.5      0.4      0.0      0.0    102.1       51    296.7    228.1       97     0.000     0.000     0.000     0.000      107        0       42       25       13        4        2    16.064       72     40.2    6.459   -9.900     1.62    0.000    0.000       27        8     1989  Maize_short_Cahul_7May_NonOptimum_85_MOHC.PRM
  Tot(10)        7        5     1990    134.9    531.5   1218.0   354.16      0.0    134.6      0.3      0.0      0.0    122.0       53    234.0    183.8       79     0.000     0.000     0.000     0.000      107        0       42       25       13       13       17    11.869       53     39.8    4.727   -9.900     1.33    0.000    0.000       27        8     1990  Maize_short_Cahul_7May_NonOptimum_85_MOHC.PRM
  Tot(11)        7        5     1991    385.6    438.1   1229.6   355.48      0.0    339.7     45.9     69.7      0.0    119.1       77    296.0    227.1      100     0.000     0.000     0.000     0.000      107        0       42       25       15        0        0    17.345       75     40.0    6.942   -9.900     1.67    0.000    0.000       27        8     1991  Maize_short_Cahul_7May_NonOptimum_85_MOHC.PRM
  Tot(12)        7        5     1992    170.3    523.5   1259.8   356.27      0.0    170.0      0.3      0.0      0.0    127.8       64    262.4    205.0       81     0.000     0.000     0.000     0.000      107        0       42       25       14        6       14    13.317       59     39.2    5.216   -9.900     1.34    0.000    0.000       27        8     1992  Maize_short_Cahul_7May_NonOptimum_85_MOHC.PRM
  Tot(13)        7        5     1993    212.3    519.6   1215.6   356.95      0.0    200.6     11.7     23.7      0.0    126.2       61    265.1    205.2       86     0.000     0.000     0.000     0.000      107        0       42       25       10        6       10    13.655       63     39.7    5.418   -9.900     1.38    0.000    0.000       27        8     1993  Maize_short_Cahul_7May_NonOptimum_85_MOHC.PRM
  Tot(14)        7        5     1994    227.8    533.6   1328.9   358.63      0.0    212.2     15.6     35.4      0.0     99.1       42    269.6    211.7       87     0.000     0.000     0.000     0.000      107        0       42       25        8       11        9    13.788       60     39.7    5.474   -9.900     1.48    0.000    0.000       27        8     1994  Maize_short_Cahul_7May_NonOptimum_85_MOHC.PRM
  Tot(15)        7        5     1995    166.2    526.8   1338.7   360.62      0.0    162.9      3.3      3.5      0.0    105.2       47    265.1    206.7       85     0.000     0.000     0.000     0.000      107        0       42       25        7       10       13    13.537       58     39.7    5.372   -9.900     1.45    0.000    0.000       27        8     1995  Maize_short_Cahul_7May_NonOptimum_85_MOHC.PRM
  Tot(16)        7        5     1996    151.7    562.1   1315.4   362.37      0.0    142.1      9.6      0.0      0.0    116.4       36    182.9    146.2       79     0.000     0.000     0.000     0.000      107        0       42       25        7       26       16     8.755       39     40.3    3.527   -9.900     1.18    0.000    0.000       27        8     1996  Maize_short_Cahul_7May_NonOptimum_85_MOHC.PRM
  Tot(17)        7        5     1997    419.7    471.7   1250.0   363.47      0.0    375.1     44.6      0.3      0.0    121.8       59    281.7    217.7      100     0.000     0.000     0.000     0.000      107        0       42       25       10        2        0    17.133       75     40.0    6.859   -9.900     1.70    0.000    0.000       27        8     1997  Maize_short_Cahul_7May_NonOptimum_85_MOHC.PRM
  Tot(18)        7        5     1998    168.8    516.5   1294.8   366.50      0.0    167.9      0.9      2.6      0.0    120.0       61    269.0    208.8       84     0.000     0.000     0.000     0.000      107        0       42       25       12        4       13    13.732       60     39.4    5.413   -9.900     1.39    0.000    0.000       27        8     1998  Maize_short_Cahul_7May_NonOptimum_85_MOHC.PRM
  Tot(19)        7        5     1999    300.8    546.7   1379.6   368.14      0.0    283.6     17.2      0.0      0.0    112.6       50    332.5    256.5       98     0.000     0.000     0.000     0.000      107        0       42       25        7        4        2    16.881       72     40.1    6.772   -9.900     1.52    0.000    0.000       27        8     1999  Maize_short_Cahul_7May_NonOptimum_85_MOHC.PRM
  Tot(20)        7        5     2000     73.9    617.8   1328.9   369.41      0.0     73.9      0.0      0.0      0.0     81.9       24    209.2    167.7       77     0.000     0.000     0.000     0.000      106        0       42       25        7       24       20     9.938       44     39.6    3.932   -9.900     1.36    0.000    0.000       27        8     2000  Maize_short_Cahul_7May_NonOptimum_85_MOHC.PRM
  Tot(21)        7        5     2001    201.1    552.7   1318.6   371.07      0.0    172.7     28.4     17.8      0.0    115.8       52    262.1    203.1       80     0.000     0.000     0.000     0.000      107        0       42       25       10        3       17    13.023       56     39.0    5.080   -9.900     1.34    0.000    0.000       27        8     2001  Maize_short_Cahul_7May_NonOptimum_85_MOHC.PRM
  Tot(22)        7        5     2002    297.9    563.7   1394.2   373.16      0.0    259.4     38.5      0.0      0.0    114.6       42    288.9    226.0       92     0.000     0.000     0.000     0.000      107        0       42       25        5       24        4    14.860       63     40.8    6.068   -9.900     1.50    0.000    0.000       27        8     2002  Maize_short_Cahul_7May_NonOptimum_85_MOHC.PRM
  Tot(23)        7        5     2003    102.9    602.8   1413.4   375.80      0.0    102.9      0.0      0.0      0.0    101.7       29    219.7    176.9       82     0.000     0.000     0.000     0.000      107        0       42       25        3       26       16    11.268       48     40.1    4.516   -9.900     1.41    0.000    0.000       27        8     2003  Maize_short_Cahul_7May_NonOptimum_85_MOHC.PRM
  Tot(24)        7        5     2004    257.1    519.7   1224.3   377.49      0.0    253.2      3.9      0.0      0.0    135.8       63    301.4    233.4       95     0.000     0.000     0.000     0.000      107        0       42       25       12       13        3    16.024       69     40.4    6.470   -9.900     1.48    0.000    0.000       27        8     2004  Maize_short_Cahul_7May_NonOptimum_85_MOHC.PRM
  Tot(25)        7        5     2005    378.7    520.8   1288.0   379.80      0.0    361.0     17.7     10.1      0.0    144.1       69    326.2    252.0      100     0.000     0.000     0.000     0.000      107        0       42       25        8        3        0    17.524       75     40.1    7.025   -9.900     1.49    0.000    0.000       27        8     2005  Maize_short_Cahul_7May_NonOptimum_85_MOHC.PRM
  Tot(26)        7        5     2006    163.6    573.8   1322.8   381.90      0.0    155.9      7.7     15.6      0.0    122.3       46    230.5    183.8       76     0.000     0.000     0.000     0.000      107        0       42       25        7       19       18    11.150       47     39.9    4.447   -9.900     1.26    0.000    0.000       27        8     2006  Maize_short_Cahul_7May_NonOptimum_85_MOHC.PRM
  Tot(27)        7        5     2007    116.6    680.4   1503.0   383.77      0.0    115.3      1.3      0.0      0.0    111.5       28    210.4    169.0       75     0.000     0.000     0.000     0.000      107        0       42       25        1       28       19     8.812       37     40.1    3.531   -9.900     1.10    0.000    0.000       27        8     2007  Maize_short_Cahul_7May_NonOptimum_85_MOHC.PRM
  Tot(28)        7        5     2008    125.7    607.1   1356.8   385.59      0.0    125.7      0.0      0.0      0.0    100.0       36    250.4    197.2       77     0.000     0.000     0.000     0.000      107        0       42       25        4       20       19    11.702       49     39.6    4.636   -9.900     1.32    0.000    0.000       27        8     2008  Maize_short_Cahul_7May_NonOptimum_85_MOHC.PRM
  Tot(29)        7        5     2009    135.6    616.1   1391.5   387.37      0.0    135.0      0.6      0.0      0.0     91.0       31    264.7    207.9       82     0.000     0.000     0.000     0.000      107        0       42       25        5       12       17    12.227       51     39.5    4.828   -9.900     1.36    0.000    0.000       27        8     2009  Maize_short_Cahul_7May_NonOptimum_85_MOHC.PRM
  Tot(30)        7        5     2010    259.9    550.9   1434.7   389.85      0.0    241.6     18.3      0.8      0.0    128.8       57    321.2    247.6       94     0.000     0.000     0.000     0.000      107        0       42       25        7        2        5    16.366       70     39.9    6.534   -9.900     1.45    0.000    0.000       27        8     2010  Maize_short_Cahul_7May_NonOptimum_85_MOHC.PRM
  Tot(31)        7        5     2011    181.1    568.4   1367.2   391.63      0.0    176.8      4.3      2.4      0.0    123.9       52    273.1    213.5       82     0.000     0.000     0.000     0.000      107        0       42       25        4        6       13    13.765       59     39.7    5.462   -9.900     1.38    0.000    0.000       27        8     2011  Maize_short_Cahul_7May_NonOptimum_85_MOHC.PRM
  Tot(32)        7        5     2012    233.1    640.5   1478.9   393.82      0.0    227.4      5.7      5.3      0.0    161.6       56    262.1    205.8       75     0.000     0.000     0.000     0.000      107        0       42       25        5       18       20    11.412       48     39.6    4.515   -9.900     1.07    0.000    0.000       27        8     2012  Maize_short_Cahul_7May_NonOptimum_85_MOHC.PRM
  Tot(33)        7        5     2013    235.4    581.7   1439.0   396.48      0.0    222.9     12.5      0.0      0.0    123.0       50    300.1    234.2       85     0.000     0.000     0.000     0.000      107        0       42       25        3        6       11    14.896       62     39.4    5.868   -9.900     1.39    0.000    0.000       27        8     2013  Maize_short_Cahul_7May_NonOptimum_85_MOHC.PRM
  Tot(34)        7        5     2014    237.3    550.5   1373.2   398.55      0.0    233.6      3.7      5.5      0.0    144.3       67    295.7    228.3       86     0.000     0.000     0.000     0.000      107        0       42       25        5        7       10    14.986       63     39.8    5.965   -9.900     1.36    0.000    0.000       27        8     2014  Maize_short_Cahul_7May_NonOptimum_85_MOHC.PRM
  Tot(35)        7        5     2015    139.4    626.7   1394.8   402.00      0.0    138.0      1.4      0.0      0.0     98.5       32    250.1    198.3       78     0.000     0.000     0.000     0.000      107        0       42       25        5       12       14    11.721       49     39.4    4.614   -9.900     1.32    0.000    0.000       27        8     2015  Maize_short_Cahul_7May_NonOptimum_85_MOHC.PRM
  Tot(36)        7        5     2016    181.5    571.0   1373.9   404.00      0.0    180.8      0.7      0.3      0.0    147.1       66    254.5    199.1       74     0.000     0.000     0.000     0.000      107        0       42       25        8       11       21    11.937       50     39.3    4.689   -9.900     1.17    0.000    0.000       27        8     2016  Maize_short_Cahul_7May_NonOptimum_85_MOHC.PRM
  Tot(37)        7        5     2017    266.4    570.6   1365.8   407.00      0.0    238.1     28.3      0.0      0.0    103.1       46    341.8    264.0       94     0.000     0.000     0.000     0.000      107        0       42       25        7        5        5    16.648       70     40.1    6.677   -9.900     1.50    0.000    0.000       27        8     2017  Maize_short_Cahul_7May_NonOptimum_85_MOHC.PRM
  Tot(38)        7        5     2018    180.2    562.5   1480.2   410.00      0.0    173.9      6.3      1.1      0.0     97.7       37    289.9    226.6       91     0.000     0.000     0.000     0.000      107        0       42       25        3       10        6    15.811       66     40.1    6.335   -9.900     1.63    0.000    0.000       27        8     2018  Maize_short_Cahul_7May_NonOptimum_85_MOHC.PRM
  Tot(39)        7        5     2019    187.7    591.3   1433.5   413.00      0.0    186.5      1.2      1.0      0.0    157.7       62    253.3    199.6       76     0.000     0.000     0.000     0.000      107        0       42       25        3       15       19    12.368       51     39.4    4.878   -9.900     1.19    0.000    0.000       27        8     2019  Maize_short_Cahul_7May_NonOptimum_85_MOHC.PRM
  Tot(40)        7        5     2020     78.3    670.7   1523.9   416.00      0.0     78.1      0.2      0.0      0.0    101.1       26    182.3    146.0       74     0.000     0.000     0.000     0.000       89        0       42       25        4       30       20     7.705       32     25.9    1.998   -9.900     0.72    0.000    0.000       27        8     2020  Maize_short_Cahul_7May_NonOptimum_85_MOHC.PRM
  Tot(41)        7        5     2021     68.2    679.8   1490.3   419.00      0.0     65.6      2.6      7.7      0.0     91.1       21    166.3    133.7       73     0.000     0.000     0.000     0.000       87        0       42       25        9       32       20     6.799       28     23.9    1.626   -9.900     0.66    0.000    0.000       27        8     2021  Maize_short_Cahul_7May_NonOptimum_85_MOHC.PRM
  Tot(42)        7        5     2022     48.4    640.2   1426.5   422.00      0.0     48.3      0.1      0.0      0.0     69.4       20    193.0    153.6       74     0.000     0.000     0.000     0.000       94        0       42       25       11       26       20     8.679       36     30.7    2.664   -9.900     1.03    0.000    0.000       27        8     2022  Maize_short_Cahul_7May_NonOptimum_85_MOHC.PRM
  Tot(43)        7        5     2023     89.7    642.4   1435.3   425.00      0.0     89.7      0.0      0.0      0.0    103.0       31    197.6    155.8       72     0.000     0.000     0.000     0.000       95        0       42       25        8       20       21     8.886       37     31.7    2.815   -9.900     0.97    0.000    0.000       27        8     2023  Maize_short_Cahul_7May_NonOptimum_85_MOHC.PRM
  Tot(44)        7        5     2024     88.9    623.4   1453.3   428.00      0.0     86.2      2.7      9.9      0.0    105.9       31    181.6    144.5       72     0.000     0.000     0.000     0.000       92        0       42       25        9       27       21     8.483       35     28.5    2.421   -9.900     0.85    0.000    0.000       27        8     2024  Maize_short_Cahul_7May_NonOptimum_85_MOHC.PRM
  Tot(45)        7        5     2025    169.4    628.7   1505.5   431.00      0.0    166.7      2.7      0.5      0.0    144.5       53    244.5    191.4       72     0.000     0.000     0.000     0.000      105        0       42       25        3       11       23    11.092       45     32.8    3.641   -9.900     0.94    0.000    0.000       27        8     2025  Maize_short_Cahul_7May_NonOptimum_85_MOHC.PRM
  Tot(46)        7        5     2026    104.1    616.5   1461.9   435.00      0.0    101.1      3.0      1.8      0.0    122.6       37    185.7    147.4       73     0.000     0.000     0.000     0.000       92        0       42       25        7       25       20     8.776       36     28.9    2.533   -9.900     0.84    0.000    0.000       27        8     2026  Maize_short_Cahul_7May_NonOptimum_85_MOHC.PRM
  Tot(47)        7        5     2027    154.2    585.2   1474.3   438.00      0.0    150.3      3.9     13.1      0.0    109.1       42    246.3    193.9       76     0.000     0.000     0.000     0.000      107        0       42       25        4       24       18    12.097       49     40.0    4.844   -9.900     1.36    0.000    0.000       27        8     2027  Maize_short_Cahul_7May_NonOptimum_85_MOHC.PRM
  Tot(48)        7        5     2028     85.5    658.3   1485.6   442.00      0.0     85.5      0.0      0.0      0.0    104.9       32    195.4    154.2       70     0.000     0.000     0.000     0.000       92        0       42       25       10       20       22     8.650       35     28.3    2.451   -9.900     0.82    0.000    0.000       27        8     2028  Maize_short_Cahul_7May_NonOptimum_85_MOHC.PRM
  Tot(49)        7        5     2029    155.3    590.3   1481.8   445.00      0.0    152.0      3.3      0.0      0.0    120.7       52    257.5    200.8       74     0.000     0.000     0.000     0.000      107        0       42       25        4       11       21    12.272       50     39.3    4.821   -9.900     1.27    0.000    0.000       27        8     2029  Maize_short_Cahul_7May_NonOptimum_85_MOHC.PRM
  Tot(50)        7        5     2030    220.1    565.8   1383.6   449.00      0.0    195.7     24.4     32.9      0.0    136.8       65    249.0    194.5       73     0.000     0.000     0.000     0.000      107        0       42       25       10       13       21    12.190       50     39.4    4.807   -9.900     1.25    0.000    0.000       27        8     2030  Maize_short_Cahul_7May_NonOptimum_85_MOHC.PRM
  Tot(51)        7        5     2031    125.2    649.1   1570.3   452.00      0.0    118.6      6.6     20.6      0.0    118.2       31    185.6    149.3       77     0.000     0.000     0.000     0.000       92        0       42       25        5       31       19     8.230       33     29.1    2.395   -9.900     0.80    0.000    0.000       27        8     2031  Maize_short_Cahul_7May_NonOptimum_85_MOHC.PRM
  Tot(52)        7        5     2032    209.4    563.9   1427.4   456.00      0.0    198.5     10.9     24.1      0.0    131.2       49    218.1    172.2       77     0.000     0.000     0.000     0.000      107        0       42       25        7       26       14    10.716       44     40.3    4.322   -9.900     1.24    0.000    0.000       27        8     2032  Maize_short_Cahul_7May_NonOptimum_85_MOHC.PRM
  Tot(53)        7        5     2033    144.4    635.9   1545.5   460.00      0.0    136.7      7.7     15.5      0.0    141.1       40    191.8    154.2       75     0.000     0.000     0.000     0.000       93        0       42       25        6       27       19     8.999       36     30.1    2.709   -9.900     0.83    0.000    0.000       27        8     2033  Maize_short_Cahul_7May_NonOptimum_85_MOHC.PRM
  Tot(54)        7        5     2034     92.4    722.6   1592.7   464.00      0.0     92.0      0.4      0.0      0.0    119.5       29    176.5    140.6       69     0.000     0.000     0.000     0.000       85        0       42       25        7       28       22     7.248       29     21.9    1.587   -9.900     0.54    0.000    0.000       27        8     2034  Maize_short_Cahul_7May_NonOptimum_85_MOHC.PRM
  Tot(55)        7        5     2035     90.8    634.7   1462.2   468.00      0.0     89.4      1.4      2.0      0.0    103.5       33    200.0    157.6       71     0.000     0.000     0.000     0.000       94        0       42       25       11       19       21     9.256       37     30.3    2.806   -9.900     0.93    0.000    0.000       27        8     2035  Maize_short_Cahul_7May_NonOptimum_85_MOHC.PRM
  Tot(56)        7        5     2036     47.2    706.0   1606.3   472.00      0.0     47.2      0.0      0.0      0.0     80.5       19    169.6    135.9       70     0.000     0.000     0.000     0.000       87        0       42       25        6       30       21     7.268       29     16.5    1.199   -9.900     0.48    0.000    0.000       27        8     2036  Maize_short_Cahul_7May_NonOptimum_85_MOHC.PRM
  Tot(57)        7        5     2037    206.1    563.1   1336.4   476.00      0.0    179.8     26.3     32.5      0.0    117.6       43    192.5    152.2       73     0.000     0.000     0.000     0.000      107        0       42       25       13       23       16     9.148       38     40.0    3.659   -9.900     1.18    0.000    0.000       27        8     2037  Maize_short_Cahul_7May_NonOptimum_85_MOHC.PRM
  Tot(58)        7        5     2038    126.9    613.7   1558.1   481.00      0.0    126.9      0.0      0.0      0.0    111.8       45    242.1    190.0       71     0.000     0.000     0.000     0.000      107        0       42       25        6       14       24    11.295       45     38.6    4.359   -9.900     1.23    0.000    0.000       27        8     2038  Maize_short_Cahul_7May_NonOptimum_85_MOHC.PRM
  Tot(59)        7        5     2039     84.1    701.8   1597.8   485.00      0.0     83.9      0.2      0.0      0.0    111.1       27    177.7    141.7       72     0.000     0.000     0.000     0.000       88        0       42       25        5       28       21     7.596       30     24.7    1.876   -9.900     0.66    0.000    0.000       27        8     2039  Maize_short_Cahul_7May_NonOptimum_85_MOHC.PRM
  Tot(60)        7        5     2040     27.7    724.9   1649.5   489.00      0.0     27.7      0.0      0.0      0.0     66.5       13    154.3    125.6       73     0.000     0.000     0.000     0.000       86        0       42       25        2       36       19     6.053       24     23.0    1.391   -9.900     0.64    0.000    0.000       27        8     2040  Maize_short_Cahul_7May_NonOptimum_85_MOHC.PRM
  Tot(61)        7        5     2041     79.4    761.3   1628.3   494.00      0.0     78.9      0.5      0.0      0.0    103.6       24    186.8    148.4       67     0.000     0.000     0.000     0.000       89        0       42       25        5       26       22     7.715       31     25.2    1.942   -9.900     0.68    0.000    0.000       27        8     2041  Maize_short_Cahul_7May_NonOptimum_85_MOHC.PRM
  Tot(62)        7        5     2042    206.2    624.2   1509.1   499.00      0.0    165.6     40.6     60.9      0.0    106.9       34    216.6    171.6       76     0.000     0.000     0.000     0.000       97        0       42       25        4       21       20    10.075       40     33.6    3.381   -9.900     1.05    0.000    0.000       27        8     2042  Maize_short_Cahul_7May_NonOptimum_85_MOHC.PRM
  Tot(63)        7        5     2043     12.3    841.5   1692.3   504.00      0.0     12.3      0.0      0.0      0.0     56.0        9    140.6    115.8       74     0.000     0.000     0.000     0.000       83        0       42       25        5       41       19     4.924       20     13.1    0.645   -9.900     0.34    0.000    0.000       27        8     2043  Maize_short_Cahul_7May_NonOptimum_85_MOHC.PRM
  Tot(64)        7        5     2044    106.9    627.4   1555.7   508.00      0.0    106.1      0.8      0.3      0.0    108.0       37    218.7    171.3       73     0.000     0.000     0.000     0.000       99        0       42       25        3       12       21    10.619       43     35.0    3.715   -9.900     1.14    0.000    0.000       27        8     2044  Maize_short_Cahul_7May_NonOptimum_85_MOHC.PRM
  Tot(65)        7        5     2045    201.1    614.0   1432.1   513.00      0.0    176.4     24.7     24.4      0.0    109.3       38    203.4    160.0       72     0.000     0.000     0.000     0.000       94        0       42       25        7       19       22     9.565       38     30.3    2.895   -9.900     0.98    0.000    0.000       27        8     2045  Maize_short_Cahul_7May_NonOptimum_85_MOHC.PRM
  Tot(66)        7        5     2046    183.7    622.9   1587.5   519.00      0.0    166.4     17.3     41.7      0.0    132.0       44    206.2    162.6       73     0.000     0.000     0.000     0.000       93        0       42       25        4       20       21     9.448       37     29.7    2.807   -9.900     0.84    0.000    0.000       27        8     2046  Maize_short_Cahul_7May_NonOptimum_85_MOHC.PRM
  Tot(67)        7        5     2047     73.4    744.8   1716.7   524.00      0.0     69.8      3.6      8.0      0.0     93.0       20    166.7    134.4       72     0.000     0.000     0.000     0.000       85        0       42       25        2       32       20     6.925       27     16.9    1.168   -9.900     0.45    0.000    0.000       27        8     2047  Maize_short_Cahul_7May_NonOptimum_85_MOHC.PRM
  Tot(68)        7        5     2048     83.2    654.2   1615.8   529.00      0.0     81.9      1.3      0.0      0.0     99.8       30    197.4    155.8       72     0.000     0.000     0.000     0.000       93        0       42       25        3       21       21     9.402       37     29.8    2.798   -9.900     0.95    0.000    0.000       27        8     2048  Maize_short_Cahul_7May_NonOptimum_85_MOHC.PRM
  Tot(69)        7        5     2049     60.6    733.7   1623.1   535.00      0.0     60.6      0.0      0.0      0.0     76.3       18    190.4    151.2       69     0.000     0.000     0.000     0.000       90        0       42       25        2       25       21     8.080       32     26.8    2.162   -9.900     0.82    0.000    0.000       27        8     2049  Maize_short_Cahul_7May_NonOptimum_85_MOHC.PRM
  Tot(70)        7        5     2050     95.5    654.2   1596.1   541.00      0.0     95.5      0.0      0.0      0.0    106.3       32    209.2    166.1       71     0.000     0.000     0.000     0.000      102        0       42       25        5       26       24     9.825       39     38.3    3.763   -9.900     1.20    0.000    0.000       27        8     2050  Maize_short_Cahul_7May_NonOptimum_85_MOHC.PRM
  Tot(71)        7        5     2051     55.2    631.4   1537.2   546.00      0.0     55.0      0.2      0.0      0.0     82.4       26    184.7    145.5       70     0.000     0.000     0.000     0.000       91        0       42       25        6       22       21     8.719       35     27.8    2.421   -9.900     0.92    0.000    0.000       27        8     2051  Maize_short_Cahul_7May_NonOptimum_85_MOHC.PRM
  Tot(72)        7        5     2052    108.9    680.6   1532.3   552.00      0.0    108.8      0.1      0.0      0.0    133.3       35    179.5    143.4       72     0.000     0.000     0.000     0.000       88        0       42       25        7       29       21     7.816       31     24.6    1.925   -9.900     0.64    0.000    0.000       27        8     2052  Maize_short_Cahul_7May_NonOptimum_85_MOHC.PRM
  Tot(73)        7        5     2053    109.8    658.2   1630.9   558.00      0.0    106.8      3.0      0.7      0.0    108.4       34    216.4    169.9       72     0.000     0.000     0.000     0.000       96        0       42       25        2       16       21    10.024       40     24.5    2.460   -9.900     0.77    0.000    0.000       27        8     2053  Maize_short_Cahul_7May_NonOptimum_85_MOHC.PRM
  Tot(74)        7        5     2054    124.6    661.4   1644.3   564.00      0.0    117.3      7.3     12.8      0.0    115.9       35    193.6    152.9       70     0.000     0.000     0.000     0.000       91        0       42       25        2       23       22     8.710       34     27.3    2.379   -9.900     0.80    0.000    0.000       27        8     2054  Maize_short_Cahul_7May_NonOptimum_85_MOHC.PRM
  Tot(75)        7        5     2055     95.3    666.6   1577.6   571.00      0.0     93.9      1.4      7.0      0.0    104.8       33    195.3    153.7       69     0.000     0.000     0.000     0.000       91        0       42       25        6       21       22     8.709       35     27.2    2.371   -9.900     0.80    0.000    0.000       27        8     2055  Maize_short_Cahul_7May_NonOptimum_85_MOHC.PRM
  Tot(76)        7        5     2056    140.1    624.7   1525.7   577.00      0.0    128.5     11.6      7.6      0.0     95.0       35    242.5    188.8       74     0.000     0.000     0.000     0.000      107        0       42       25        3        8       19    11.729       47     39.0    4.572   -9.900     1.35    0.000    0.000       27        8     2056  Maize_short_Cahul_7May_NonOptimum_85_MOHC.PRM
  Tot(77)        7        5     2057    179.8    607.2   1525.4   583.00      0.0    174.8      5.0      6.2      0.0    129.8       55    263.5    205.4       78     0.000     0.000     0.000     0.000      106        0       42       25        5        5       20    12.646       50     38.7    4.893   -9.900     1.24    0.000    0.000       27        8     2057  Maize_short_Cahul_7May_NonOptimum_85_MOHC.PRM
  Tot(78)        7        5     2058     84.8    745.5   1752.5   590.00      0.0     83.6      1.2      1.3      0.0    107.8       24    173.8    139.5       72     0.000     0.000     0.000     0.000       86        0       42       25        2       31       21     6.990       28     18.5    1.291   -9.900     0.46    0.000    0.000       27        8     2058  Maize_short_Cahul_7May_NonOptimum_85_MOHC.PRM
  Tot(79)        7        5     2059    120.8    624.7   1626.6   597.00      0.0    120.8      0.0      0.0      0.0     97.3       36    248.6    194.0       76     0.000     0.000     0.000     0.000      107        0       42       25        3       11       19    12.912       51     38.9    5.026   -9.900     1.45    0.000    0.000       27        8     2059  Maize_short_Cahul_7May_NonOptimum_85_MOHC.PRM
  Tot(80)        7        5     2060     60.4    818.5   1832.8   604.00      0.0     60.4      0.0      0.0      0.0     95.0       17    163.2    132.8       73     0.000     0.000     0.000     0.000       86        0       42       25        1       36       20     6.338       25      8.0    0.504   -9.900     0.20    0.000    0.000       27        8     2060  Maize_short_Cahul_7May_NonOptimum_85_MOHC.PRM
  Tot(81)        7        5     2061    109.0    684.8   1609.7   611.00      0.0     81.3     27.7     20.4      0.0     91.6       24    172.6    137.7       70     0.000     0.000     0.000     0.000       87        0       42       25       10       29       21     7.614       30     23.6    1.795   -9.900     0.69    0.000    0.000       27        8     2061  Maize_short_Cahul_7May_NonOptimum_85_MOHC.PRM
  Tot(82)        7        5     2062     74.9    726.9   1741.8   618.00      0.0     73.8      1.1      0.0      0.0     93.2       23    182.6    145.6       70     0.000     0.000     0.000     0.000       89        0       42       25        2       27       22     8.031       32     25.4    2.041   -9.900     0.78    0.000    0.000       27        8     2062  Maize_short_Cahul_7May_NonOptimum_85_MOHC.PRM
  Tot(83)        7        5     2063     75.3    651.2   1684.7   625.00      0.0     68.2      7.1     10.7      0.0     80.8       25    194.6    152.8       71     0.000     0.000     0.000     0.000       95        0       42       25        1       19       21     9.557       38     31.3    2.988   -9.900     1.09    0.000    0.000       27        8     2063  Maize_short_Cahul_7May_NonOptimum_85_MOHC.PRM
  Tot(84)        7        5     2064     48.7    739.8   1795.9   632.00      0.0     48.7      0.0      0.0      0.0     82.4       17    166.4    134.4       74     0.000     0.000     0.000     0.000       87        0       42       25        2       33       20     7.098       28     24.3    1.725   -9.900     0.72    0.000    0.000       27        8     2064  Maize_short_Cahul_7May_NonOptimum_85_MOHC.PRM
  Tot(85)        7        5     2065     41.5    636.7   1638.4   639.00      0.0     41.5      0.0      0.0      0.0     76.7       21    170.3    135.9       74     0.000     0.000     0.000     0.000       91        0       42       25        2       29       20     8.459       33     28.2    2.385   -9.900     1.02    0.000    0.000       27        8     2065  Maize_short_Cahul_7May_NonOptimum_85_MOHC.PRM
  Tot(86)        7        5     2066     24.0    743.5   1749.9   647.00      0.0     24.0      0.0      0.0      0.0     65.0       13    158.4    128.6       74     0.000     0.000     0.000     0.000       88        0       42       25        1       35       19     6.908       27     24.9    1.720   -9.900     0.80    0.000    0.000       27        8     2066  Maize_short_Cahul_7May_NonOptimum_85_MOHC.PRM
  Tot(87)        7        5     2067    108.7    748.9   1807.3   654.00      0.0    101.8      6.9     11.5      0.0    106.9       26    193.4    153.5       69     0.000     0.000     0.000     0.000       89        0       42       25        0       26       22     8.107       32     25.7    2.084   -9.900     0.71    0.000    0.000       27        8     2067  Maize_short_Cahul_7May_NonOptimum_85_MOHC.PRM
  Tot(88)        7        5     2068    145.8    656.7   1679.7   662.00      0.0    144.4      1.4      0.0      0.0    129.2       46    243.3    190.7       72     0.000     0.000     0.000     0.000      107        0       42       25        2       13       23    12.060       48     38.3    4.613   -9.900     1.24    0.000    0.000       27        8     2068  Maize_short_Cahul_7May_NonOptimum_85_MOHC.PRM
  Tot(89)        7        5     2069    137.8    654.1   1718.6   669.00      0.0    127.2     10.6      3.9      0.0     87.2       32    261.4    203.1       76     0.000     0.000     0.000     0.000      107        0       42       25        1        6       21    12.562       50     38.5    4.837   -9.900     1.39    0.000    0.000       27        8     2069  Maize_short_Cahul_7May_NonOptimum_85_MOHC.PRM
  Tot(90)        7        5     2070     83.9    748.7   1769.1   677.00      0.0     73.1     10.8     20.4      0.0     84.7       19    172.3    138.0       70     0.000     0.000     0.000     0.000       88        0       42       25        3       29       21     7.746       31     25.0    1.935   -9.900     0.76    0.000    0.000       27        8     2070  Maize_short_Cahul_7May_NonOptimum_85_MOHC.PRM
  Tot(91)        7        5     2071     20.8    790.8   1788.8   685.00      0.0     20.8      0.0      0.0      0.0     61.8       12    154.7    125.5       71     0.000     0.000     0.000     0.000       85        0       42       25        2       35       20     6.249       25      3.4    0.212   -9.900     0.10    0.000    0.000       27        8     2071  Maize_short_Cahul_7May_NonOptimum_85_MOHC.PRM
  Tot(92)        7        5     2072     97.0    728.5   1777.5   693.00      0.0     95.5      1.5      2.1      0.0    116.6       30    186.1    147.3       70     0.000     0.000     0.000     0.000       89        0       42       25        3       24       22     8.383       33     25.8    2.162   -9.900     0.72    0.000    0.000       27        8     2072  Maize_short_Cahul_7May_NonOptimum_85_MOHC.PRM
  Tot(93)        7        5     2073    101.9    691.7   1680.6   701.00      0.0     99.9      2.0      1.5      0.0     87.4       27    233.7    182.8       73     0.000     0.000     0.000     0.000      100        0       42       25        1       11       21    10.900       43     35.7    3.890   -9.900     1.22    0.000    0.000       27        8     2073  Maize_short_Cahul_7May_NonOptimum_85_MOHC.PRM
  Tot(94)        7        5     2074     67.5    766.5   1753.0   709.00      0.0     67.1      0.4      0.9      0.0    100.8       21    163.9    132.1       71     0.000     0.000     0.000     0.000       86        0       42       25        4       33       21     7.025       28     22.7    1.594   -9.900     0.62    0.000    0.000       27        8     2074  Maize_short_Cahul_7May_NonOptimum_85_MOHC.PRM
  Tot(95)        7        5     2075     53.1    761.9   1831.6   717.00      0.0     52.0      1.1      2.8      0.0     87.8       17    157.9    128.4       74     0.000     0.000     0.000     0.000       87        0       42       25        1       35       19     6.540       26     17.2    1.127   -9.900     0.46    0.000    0.000       27        8     2075  Maize_short_Cahul_7May_NonOptimum_85_MOHC.PRM
  Tot(96)        7        5     2076     98.3    710.3   1682.7   725.00      0.0     91.0      7.3     19.9      0.0     94.2       24    186.9    148.9       73     0.000     0.000     0.000     0.000       91        0       42       25        8       28       21     8.357       33     20.3    1.698   -9.900     0.61    0.000    0.000       27        8     2076  Maize_short_Cahul_7May_NonOptimum_85_MOHC.PRM
  Tot(97)        7        5     2077     61.7    695.5   1713.9   733.00      0.0     61.4      0.3      0.0      0.0     77.6       19    179.1    143.0       72     0.000     0.000     0.000     0.000       93        0       42       25        2       26       20     8.483       34     29.5    2.506   -9.900     1.02    0.000    0.000       27        8     2077  Maize_short_Cahul_7May_NonOptimum_85_MOHC.PRM
  Tot(98)        7        5     2078     91.7    643.0   1724.0   742.00      0.0     91.7      0.0      0.0      0.0    102.8       32    202.1    159.8       75     0.000     0.000     0.000     0.000       99        0       42       25        4       22       21    10.331       41     35.4    3.653   -9.900     1.24    0.000    0.000       27        8     2078  Maize_short_Cahul_7May_NonOptimum_85_MOHC.PRM
  Tot(99)        7        5     2079     70.4    717.0   1791.9   750.00      0.0     69.5      0.9      0.1      0.0     99.5       25    169.9    135.7       69     0.000     0.000     0.000     0.000       86        0       42       25        3       29       21     7.180       29      9.7    0.695   -9.900     0.26    0.000    0.000       27        8     2079  Maize_short_Cahul_7May_NonOptimum_85_MOHC.PRM
 Tot(100)        7        5     2080    123.2    764.0   1856.4   758.00      0.0    123.0      0.2      0.0      0.0    141.1       31    177.6    142.6       71     0.000     0.000     0.000     0.000       90        0       42       25        2       31       21     7.015       28      3.8    0.266   -9.900     0.08    0.000    0.000       27        8     2080  Maize_short_Cahul_7May_NonOptimum_85_MOHC.PRM
 Tot(101)        7        5     2081     91.1    739.6   1893.9   767.00      0.0     90.8      0.3      0.0      0.0    106.1       25    198.9    158.0       74     0.000     0.000     0.000     0.000       94        0       42       25        0       26       21     8.699       35     30.6    2.664   -9.900     0.88    0.000    0.000       27        8     2081  Maize_short_Cahul_7May_NonOptimum_85_MOHC.PRM
 Tot(102)        7        5     2082     72.3    759.5   1881.6   775.00      0.0     60.3     12.0     21.4      0.0     71.8       16    172.1    137.9       72     0.000     0.000     0.000     0.000       88        0       42       25        1       31       20     7.522       30     25.1    1.889   -9.900     0.79    0.000    0.000       27        8     2082  Maize_short_Cahul_7May_NonOptimum_85_MOHC.PRM
 Tot(103)        7        5     2083    109.0    777.6   1807.4   784.00      0.0     99.9      9.1     10.2      0.0    120.2       27    173.5    138.2       67     0.000     0.000     0.000     0.000       87        0       42       25        3       28       22     7.477       30     17.3    1.295   -9.900     0.44    0.000    0.000       27        8     2083  Maize_short_Cahul_7May_NonOptimum_85_MOHC.PRM
 Tot(104)        7        5     2084    324.1    584.4   1607.0   792.00      0.0    206.9    117.2    133.9      0.0     74.6       33    217.4    170.0       75     0.000     0.000     0.000     0.000       99        0       42       25        9       14       23    10.726       44     35.3    3.785   -9.900     1.31    0.000    0.000       27        8     2084  Maize_short_Cahul_7May_NonOptimum_85_MOHC.PRM
 Tot(105)        7        5     2085    126.5    754.4   1885.3   801.00      0.0    121.8      4.7      9.0      0.0    144.6       32    166.4    133.7       73     0.000     0.000     0.000     0.000       86        0       42       25        1       32       21     7.021       28     15.7    1.103   -9.900     0.37    0.000    0.000       27        8     2085  Maize_short_Cahul_7May_NonOptimum_85_MOHC.PRM
 Tot(106)        7        5     2086     44.8    732.3   1847.8   810.00      0.0     44.8      0.0      0.0      0.0     74.7       17    178.5    142.5       72     0.000     0.000     0.000     0.000       92        0       42       25        1       27       20     8.330       34      6.5    0.544   -9.900     0.22    0.000    0.000       27        8     2086  Maize_short_Cahul_7May_NonOptimum_85_MOHC.PRM
 Tot(107)        7        5     2087     36.6    841.8   1920.4   818.00      0.0     36.6      0.0      0.0      0.0     77.7       13    149.3    122.0       73     0.000     0.000     0.000     0.000       86        0       42       25        0       37       19     5.737       23      4.0    0.227   -9.900     0.10    0.000    0.000       27        8     2087  Maize_short_Cahul_7May_NonOptimum_85_MOHC.PRM
 Tot(108)        7        5     2088     38.9    855.9   1902.7   827.00      0.0     38.4      0.5      0.0      0.0     70.2       11    143.3    117.8       74     0.000     0.000     0.000     0.000       86        0       42       25        0       40       18     5.216       21     12.1    0.633   -9.900     0.32    0.000    0.000       27        8     2088  Maize_short_Cahul_7May_NonOptimum_85_MOHC.PRM
 Tot(109)        7        5     2089     30.1    826.0   1908.7   836.00      0.0     30.1      0.0      0.0      0.0     67.7       12    161.2    130.5       71     0.000     0.000     0.000     0.000       86        0       42       25        1       34       21     6.310       26      0.2    0.011   -9.900     0.00    0.000    0.000       27        8     2089  Maize_short_Cahul_7May_NonOptimum_85_MOHC.PRM
 Tot(110)        7        5     2090     94.0    706.2   1770.6   845.00      0.0     90.2      3.8      5.3      0.0     93.2       29    207.8    163.2       70     0.000     0.000     0.000     0.000       94        0       42       25        2       18       22     9.278       38     30.2    2.797   -9.900     0.94    0.000    0.000       27        8     2090  Maize_short_Cahul_7May_NonOptimum_85_MOHC.PRM
 Tot(111)        7        5     2091     49.4    832.6   1879.0   854.00      0.0     48.8      0.6      0.0      0.0     78.1       16    170.8    137.0       69     0.000     0.000     0.000     0.000       85        0       42       25        0       32       22     6.564       27      5.0    0.326   -9.900     0.13    0.000    0.000       27        8     2091  Maize_short_Cahul_7May_NonOptimum_85_MOHC.PRM
 Tot(112)        7        5     2092     72.9    811.5   1833.8   863.00      0.0     65.2      7.7     28.0      0.0     71.2       14    160.3    129.7       72     0.000     0.000     0.000     0.000       85        0       42       25        3       34       20     6.396       26     10.1    0.643   -9.900     0.28    0.000    0.000       27        8     2092  Maize_short_Cahul_7May_NonOptimum_85_MOHC.PRM
 Tot(113)        7        5     2093     72.8    826.5   1894.3   872.00      0.0     72.5      0.3      0.0      0.0    106.2       21    170.4    136.8       68     0.000     0.000     0.000     0.000       87        0       42       25        0       30       21     7.073       29      0.6    0.040   -9.900     0.01    0.000    0.000       27        8     2093  Maize_short_Cahul_7May_NonOptimum_85_MOHC.PRM
 Tot(114)        7        5     2094     12.3    827.0   1938.0   881.00      0.0     12.3      0.0      0.0      0.0     54.9        9    145.4    119.1       76     0.000     0.000     0.000     0.000       86        0       42       25        1       39       18     5.560       23     23.1    1.286   -9.900     0.65    0.000    0.000       27        8     2094  Maize_short_Cahul_7May_NonOptimum_85_MOHC.PRM
 Tot(115)        7        5     2095     29.6    827.3   1906.9   890.00      0.0     29.4      0.2      0.0      0.0     70.4       13    156.8    126.9       70     0.000     0.000     0.000     0.000       87        0       42       25        0       35       20     6.382       26     -9.9    0.000   -9.900     0.00    0.000    0.000       27        8     2095  Maize_short_Cahul_7May_NonOptimum_85_MOHC.PRM
 Tot(116)        7        5     2096     98.2    776.7   1888.0   899.00      0.0     94.5      3.7      7.6      0.0    118.9       25    167.9    134.6       72     0.000     0.000     0.000     0.000       88        0       42       25        2       30       20     7.271       30     24.8    1.805   -9.900     0.63    0.000    0.000       27        8     2096  Maize_short_Cahul_7May_NonOptimum_85_MOHC.PRM
 Tot(117)        7        5     2097    141.3    741.7   1854.6   908.00      0.0    113.5     27.8     35.4      0.0    110.5       26    168.3    134.7       71     0.000     0.000     0.000     0.000       88        0       42       25        1       29       20     7.339       30     12.4    0.913   -9.900     0.33    0.000    0.000       27        8     2097  Maize_short_Cahul_7May_NonOptimum_85_MOHC.PRM
 Tot(118)        7        5     2098     45.8    756.1   1855.6   917.00      0.0     45.7      0.1      0.0      0.0     80.8       19    167.9    134.0       69     0.000     0.000     0.000     0.000       88        0       42       25        2       28       21     7.317       30     15.8    1.159   -9.900     0.47    0.000    0.000       27        8     2098  Maize_short_Cahul_7May_NonOptimum_85_MOHC.PRM
 Tot(119)        7        5     2099    117.4    666.5   1800.5   927.00      0.0    114.7      2.7      0.0      0.0     87.9       32    250.8    196.1       77     0.000     0.000     0.000     0.000      107        0       42       25        1       12       18    12.502       52     39.1    4.894   -9.900     1.45    0.000    0.000       27        8     2099  Maize_short_Cahul_7May_NonOptimum_85_MOHC.PRM
