AquaCrop 7.0 (August 2022) - Output created on (date) : 23-11-2022   at (time) : 11:34:13

    RunNr     Day1   Month1    Year1     Rain      ETo       GD     CO2      Irri   Infilt   Runoff    Drain   Upflow        E     E/Ex       Tr      TrW   Tr/Trx    SaltIn   SaltOut    SaltUp  SaltProf     Cycle   SaltStr  FertStr  WeedStr  TempStr   ExpStr   StoStr  BioMass  Brelative   HI    Y(dry)  Y(fresh)    WPet      Bin     Bout     DayN   MonthN    YearN
                                           mm       mm  degC.day    ppm        mm       mm       mm       mm       mm       mm        %       mm       mm        %    ton/ha    ton/ha    ton/ha    ton/ha      days       %        %        %        %        %        %    ton/ha        %       %    ton/ha   ton/ha    kg/m3   ton/ha   ton/ha
   Tot(1)       22        5     1981    131.8    514.9   1295.7   340.11      0.0    131.0      0.8      0.0      0.0    103.1       43    242.3    188.7       87     0.000     0.000     0.000     0.000      107        0       42       25        8        8       10    13.074       61     40.1    5.245   -9.900     1.52    0.000    0.000       11        9     1981  Maize_short_Cahul_22May_NonOptimum_26_NCC.PRM
   Tot(2)       22        5     1982    240.1    482.2   1316.7   341.22      0.0    239.1      1.0      0.0      0.0    135.6       61    275.4    212.2      100     0.000     0.000     0.000     0.000      107        0       42       25        5        3        0    16.733       74     40.1    6.705   -9.900     1.63    0.000    0.000       11        9     1982  Maize_short_Cahul_22May_NonOptimum_26_NCC.PRM
   Tot(3)       22        5     1983    279.5    484.1   1295.1   342.84      0.0    252.0     27.5     32.8      0.0    123.2       58    279.7    217.1      100     0.000     0.000     0.000     0.000      107        0       42       25        7        5        0    16.256       74     40.2    6.533   -9.900     1.62    0.000    0.000       11        9     1983  Maize_short_Cahul_22May_NonOptimum_26_NCC.PRM
   Tot(4)       22        5     1984    165.7    468.8   1167.8   344.40      0.0    165.3      0.4      0.0      0.0    136.8       66    242.9    189.8       92     0.000     0.000     0.000     0.000      107        0       42       25       11        5        7    14.500       68     40.1    5.810   -9.900     1.53    0.000    0.000       11        9     1984  Maize_short_Cahul_22May_NonOptimum_26_NCC.PRM
   Tot(5)       22        5     1985    327.9    481.2   1222.6   345.87      0.0    296.5     31.4     47.4      0.0    134.3       67    278.4    214.6       98     0.000     0.000     0.000     0.000      107        0       42       25       12        3        1    15.693       74     40.1    6.300   -9.900     1.53    0.000    0.000       11        9     1985  Maize_short_Cahul_22May_NonOptimum_26_NCC.PRM
   Tot(6)       22        5     1986    159.8    540.0   1341.9   347.19      0.0    158.4      1.4      1.2      0.0    122.8       49    246.5    193.1       84     0.000     0.000     0.000     0.000      107        0       42       25        6       11       12    13.002       59     40.0    5.203   -9.900     1.41    0.000    0.000       11        9     1986  Maize_short_Cahul_22May_NonOptimum_26_NCC.PRM
   Tot(7)       22        5     1987    237.0    495.2   1234.6   348.98      0.0    226.5     10.5      5.8      0.0    111.8       54    293.7    227.1      100     0.000     0.000     0.000     0.000      107        0       42       25       10        4        0    16.131       74     40.2    6.484   -9.900     1.60    0.000    0.000       11        9     1987  Maize_short_Cahul_22May_NonOptimum_26_NCC.PRM
   Tot(8)       22        5     1988    215.6    496.5   1322.9   351.45      0.0    198.9     16.7     20.3      0.0    136.2       59    210.5    166.9       80     0.000     0.000     0.000     0.000      107        0       42       25        8       15       16    10.573       48     40.0    4.232   -9.900     1.22    0.000    0.000       11        9     1988  Maize_short_Cahul_22May_NonOptimum_26_NCC.PRM
   Tot(9)       22        5     1989    278.3    464.8   1227.8   352.89      0.0    269.4      8.9      0.8      0.0    130.8       68    277.9    214.9       98     0.000     0.000     0.000     0.000      107        0       42       25       11        5        1    16.020       73     40.1    6.426   -9.900     1.57    0.000    0.000       11        9     1989  Maize_short_Cahul_22May_NonOptimum_26_NCC.PRM
  Tot(10)       22        5     1990    134.6    519.4   1222.9   354.16      0.0    133.4      1.2      4.2      0.0    134.3       52    210.8    167.7       82     0.000     0.000     0.000     0.000      105        0       42       25       11       20       18    10.858       49     40.0    4.348   -9.900     1.26    0.000    0.000       11        9     1990  Maize_short_Cahul_22May_NonOptimum_26_NCC.PRM
  Tot(11)       22        5     1991    339.7    442.2   1261.6   355.48      0.0    294.4     45.3     75.9      0.0    115.8       67    276.1    212.4      100     0.000     0.000     0.000     0.000      107        0       42       25       10        2        0    16.678       75     40.1    6.687   -9.900     1.71    0.000    0.000       11        9     1991  Maize_short_Cahul_22May_NonOptimum_26_NCC.PRM
  Tot(12)       22        5     1992    172.1    523.4   1310.7   356.27      0.0    171.3      0.8      0.0      0.0    144.3       66    238.3    187.2       79     0.000     0.000     0.000     0.000      107        0       42       25        8       14       15    12.013       53     39.8    4.786   -9.900     1.25    0.000    0.000       11        9     1992  Maize_short_Cahul_22May_NonOptimum_26_NCC.PRM
  Tot(13)       22        5     1993    184.6    515.2   1213.1   356.95      0.0    177.7      6.9     14.6      0.0    114.5       50    251.4    195.1       90     0.000     0.000     0.000     0.000      107        0       42       25       12        7        7    13.380       65     40.1    5.368   -9.900     1.47    0.000    0.000       11        9     1993  Maize_short_Cahul_22May_NonOptimum_26_NCC.PRM
  Tot(14)       22        5     1994    229.2    520.8   1387.8   358.63      0.0    210.6     18.6     40.3      0.0    104.3       44    270.1    211.4       90     0.000     0.000     0.000     0.000      107        0       42       25        7        9        8    14.707       63     40.2    5.917   -9.900     1.58    0.000    0.000       11        9     1994  Maize_short_Cahul_22May_NonOptimum_26_NCC.PRM
  Tot(15)       22        5     1995    194.2    524.5   1401.1   360.62      0.0    189.8      4.4      0.3      0.0    116.9       46    243.9    191.4       88     0.000     0.000     0.000     0.000      107        0       42       25        3       13        9    13.202       58     40.3    5.317   -9.900     1.47    0.000    0.000       11        9     1995  Maize_short_Cahul_22May_NonOptimum_26_NCC.PRM
  Tot(16)       22        5     1996    152.9    537.6   1282.2   362.37      0.0    143.3      9.6      0.4      0.0     97.4       31    204.1    164.0       87     0.000     0.000     0.000     0.000      107        0       42       25        9       27        7    11.290       52     40.7    4.595   -9.900     1.52    0.000    0.000       11        9     1996  Maize_short_Cahul_22May_NonOptimum_26_NCC.PRM
  Tot(17)       22        5     1997    432.8    444.0   1221.9   363.47      0.0    383.5     49.3     17.3      0.0    148.6       78    259.9    201.1      100     0.000     0.000     0.000     0.000      107        0       42       25       10        1        0    16.771       75     40.0    6.712   -9.900     1.64    0.000    0.000       11        9     1997  Maize_short_Cahul_22May_NonOptimum_26_NCC.PRM
  Tot(18)       22        5     1998    180.5    509.6   1309.0   366.50      0.0    177.7      2.8      0.0      0.0    130.0       58    239.8    187.2       85     0.000     0.000     0.000     0.000      107        0       42       25        8        8       11    12.334       57     40.0    4.933   -9.900     1.33    0.000    0.000       11        9     1998  Maize_short_Cahul_22May_NonOptimum_26_NCC.PRM
  Tot(19)       22        5     1999    308.1    540.3   1455.6   368.14      0.0    295.8     12.3     14.0      0.0    143.6       56    302.8    234.8       99     0.000     0.000     0.000     0.000      107        0       42       25        3       11        1    16.563       71     40.6    6.733   -9.900     1.51    0.000    0.000       11        9     1999  Maize_short_Cahul_22May_NonOptimum_26_NCC.PRM
  Tot(20)       22        5     2000    130.9    589.8   1344.8   369.41      0.0    120.7     10.2      0.0      0.0     97.4       28    199.7    160.6       79     0.000     0.000     0.000     0.000      107        0       42       25        7       21       16     9.657       43     40.0    3.866   -9.900     1.30    0.000    0.000       11        9     2000  Maize_short_Cahul_22May_NonOptimum_26_NCC.PRM
  Tot(21)       22        5     2001    279.5    543.9   1369.9   371.07      0.0    230.6     48.9     24.2      0.0    149.2       55    207.6    163.4       77     0.000     0.000     0.000     0.000       99        0       42       25        6       18       20    10.009       43     35.9    3.594   -9.900     1.04    0.000    0.000       11        9     2001  Maize_short_Cahul_22May_NonOptimum_26_NCC.PRM
  Tot(22)       22        5     2002    292.1    558.8   1450.8   373.16      0.0    255.3     36.8      0.0      0.0    114.8       41    303.8    237.8      100     0.000     0.000     0.000     0.000      107        0       42       25        4       15        0    16.489       69     40.0    6.597   -9.900     1.58    0.000    0.000       11        9     2002  Maize_short_Cahul_22May_NonOptimum_26_NCC.PRM
  Tot(23)       22        5     2003    116.6    575.5   1394.8   375.80      0.0    116.5      0.1      0.0      0.0    105.7       34    221.9    176.4       82     0.000     0.000     0.000     0.000      107        0       42       25        6       17       16    11.636       52     39.7    4.620   -9.900     1.41    0.000    0.000       11        9     2003  Maize_short_Cahul_22May_NonOptimum_26_NCC.PRM
  Tot(24)       22        5     2004    264.5    517.1   1270.8   377.49      0.0    258.7      5.8      1.7      0.0    127.4       55    294.4    229.1      100     0.000     0.000     0.000     0.000      107        0       42       25        9        6        0    16.498       74     40.2    6.631   -9.900     1.57    0.000    0.000       11        9     2004  Maize_short_Cahul_22May_NonOptimum_26_NCC.PRM
  Tot(25)       22        5     2005    340.5    530.1   1378.5   379.80      0.0    324.9     15.6      7.2      0.0    155.4       67    317.3    243.9      100     0.000     0.000     0.000     0.000      107        0       42       25        5        2        0    17.621       75     40.0    7.054   -9.900     1.49    0.000    0.000       11        9     2005  Maize_short_Cahul_22May_NonOptimum_26_NCC.PRM
  Tot(26)       22        5     2006    165.3    572.9   1356.3   381.90      0.0    162.9      2.4      0.0      0.0    124.3       41    230.5    184.8       82     0.000     0.000     0.000     0.000      107        0       42       25        7       27       12    11.758       51     40.6    4.773   -9.900     1.35    0.000    0.000       11        9     2006  Maize_short_Cahul_22May_NonOptimum_26_NCC.PRM
  Tot(27)       22        5     2007    154.6    656.0   1505.6   383.77      0.0    153.3      1.3      0.0      0.0    127.0       32    225.1    180.5       80     0.000     0.000     0.000     0.000      107        0       42       25        3       31       12    10.407       45     40.5    4.218   -9.900     1.20    0.000    0.000       11        9     2007  Maize_short_Cahul_22May_NonOptimum_26_NCC.PRM
  Tot(28)       22        5     2008    135.9    609.6   1430.9   385.59      0.0    135.2      0.7      0.6      0.0    124.8       39    228.9    182.6       78     0.000     0.000     0.000     0.000      107        0       42       25        3       20       19    10.856       46     39.6    4.304   -9.900     1.22    0.000    0.000       11        9     2008  Maize_short_Cahul_22May_NonOptimum_26_NCC.PRM
  Tot(29)       22        5     2009    193.1    608.5   1428.8   387.37      0.0    186.0      7.1      0.0      0.0    132.2       42    241.1    189.3       81     0.000     0.000     0.000     0.000      107        0       42       25        4       18       16    11.138       47     40.1    4.468   -9.900     1.20    0.000    0.000       11        9     2009  Maize_short_Cahul_22May_NonOptimum_26_NCC.PRM
  Tot(30)       22        5     2010    262.4    544.9   1456.8   389.85      0.0    244.4     18.0     23.9      0.0    128.7       53    284.3    219.8       90     0.000     0.000     0.000     0.000      107        0       42       25        5        4        7    14.944       65     39.8    5.947   -9.900     1.44    0.000    0.000       11        9     2010  Maize_short_Cahul_22May_NonOptimum_26_NCC.PRM
  Tot(31)       22        5     2011    160.8    575.7   1434.7   391.63      0.0    157.7      3.1      5.8      0.0    126.0       47    245.7    193.3       78     0.000     0.000     0.000     0.000      107        0       42       25        3       14       18    12.353       52     39.7    4.908   -9.900     1.32    0.000    0.000       11        9     2011  Maize_short_Cahul_22May_NonOptimum_26_NCC.PRM
  Tot(32)       22        5     2012    196.3    639.5   1494.0   393.82      0.0    189.7      6.6      8.8      0.0    148.0       47    246.7    195.6       76     0.000     0.000     0.000     0.000      107        0       42       25        3       24       19    10.916       46     40.2    4.383   -9.900     1.11    0.000    0.000       11        9     2012  Maize_short_Cahul_22May_NonOptimum_26_NCC.PRM
  Tot(33)       22        5     2013    252.7    563.0   1428.9   396.48      0.0    239.0     13.7     14.7      0.0    144.5       57    275.7    214.5       86     0.000     0.000     0.000     0.000      107        0       42       25        3        8       10    14.229       60     40.0    5.696   -9.900     1.36    0.000    0.000       11        9     2013  Maize_short_Cahul_22May_NonOptimum_26_NCC.PRM
  Tot(34)       22        5     2014    196.3    573.6   1463.6   398.55      0.0    193.6      2.7      4.1      0.0    147.2       60    268.2    210.3       80     0.000     0.000     0.000     0.000      107        0       42       25        3       10       16    13.352       56     39.6    5.286   -9.900     1.27    0.000    0.000       11        9     2014  Maize_short_Cahul_22May_NonOptimum_26_NCC.PRM
  Tot(35)       22        5     2015    138.9    636.7   1471.6   401.00      0.0    136.7      2.2      0.0      0.0    116.3       36    235.7    186.1       74     0.000     0.000     0.000     0.000      107        0       42       25        4       20       19    10.969       46     40.0    4.382   -9.900     1.24    0.000    0.000       11        9     2015  Maize_short_Cahul_22May_NonOptimum_26_NCC.PRM
  Tot(36)       22        5     2016    164.9    587.5   1485.2   403.00      0.0    161.0      3.9      8.4      0.0    156.7       54    214.7    170.5       73     0.000     0.000     0.000     0.000      107        0       42       25        3       24       23    10.192       42     39.8    4.059   -9.900     1.09    0.000    0.000       11        9     2016  Maize_short_Cahul_22May_NonOptimum_26_NCC.PRM
  Tot(37)       22        5     2017    244.3    575.3   1442.4   405.00      0.0    217.3     27.0      1.4      0.0    121.3       49    311.8    241.8       91     0.000     0.000     0.000     0.000      107        0       42       25        3        6        9    15.486       65     39.9    6.181   -9.900     1.43    0.000    0.000       11        9     2017  Maize_short_Cahul_22May_NonOptimum_26_NCC.PRM
  Tot(38)       22        5     2018    162.1    570.8   1538.6   408.00      0.0    157.2      4.9      0.0      0.0     92.0       33    276.7    215.6       87     0.000     0.000     0.000     0.000      107        0       42       25        2        8       10    14.885       62     39.6    5.901   -9.900     1.60    0.000    0.000       11        9     2018  Maize_short_Cahul_22May_NonOptimum_26_NCC.PRM
  Tot(39)       22        5     2019    162.8    617.9   1528.8   410.00      0.0    161.5      1.3      0.0      0.0    164.0       51    219.7    174.0       76     0.000     0.000     0.000     0.000      105        0       42       25        1       20       21    10.909       45     39.4    4.298   -9.900     1.12    0.000    0.000       11        9     2019  Maize_short_Cahul_22May_NonOptimum_26_NCC.PRM
  Tot(40)       22        5     2020    103.5    568.3   1348.3   412.00      0.0    101.7      1.8      4.9      0.0    114.3       37    194.3    154.6       77     0.000     0.000     0.000     0.000      107        0       42       25        4       27       18     9.844       42     40.4    3.975   -9.900     1.29    0.000    0.000       11        9     2020  Maize_short_Cahul_22May_NonOptimum_26_NCC.PRM
  Tot(41)       22        5     2021    120.8    568.2   1256.3   414.00      0.0    120.0      0.8      0.0      0.0    106.4       38    202.3    158.8       75     0.000     0.000     0.000     0.000       98        0       42       25        9       15       20     9.927       43     34.7    3.442   -9.900     1.13    0.000    0.000       11        9     2021  Maize_short_Cahul_22May_NonOptimum_26_NCC.PRM
  Tot(42)       22        5     2022     95.5    649.2   1490.9   417.00      0.0     89.0      6.5     18.2      0.0    104.1       25    166.5    134.3       76     0.000     0.000     0.000     0.000       90        0       42       25        1       32       19     7.251       30     26.0    1.887   -9.900     0.72    0.000    0.000       11        9     2022  Maize_short_Cahul_22May_NonOptimum_26_NCC.PRM
  Tot(43)       22        5     2023     87.2    586.2   1338.0   419.00      0.0     85.6      1.6      4.2      0.0    112.5       33    176.9    141.3       77     0.000     0.000     0.000     0.000       94        0       42       25        4       28       19     8.713       37     31.0    2.703   -9.900     0.94    0.000    0.000       11        9     2023  Maize_short_Cahul_22May_NonOptimum_26_NCC.PRM
  Tot(44)       22        5     2024    145.4    586.1   1276.7   421.00      0.0    129.4     16.0     32.0      0.0    121.7       39    185.1    146.7       74     0.000     0.000     0.000     0.000       92        0       42       25       10       25       20     8.491       36     28.8    2.444   -9.900     0.81    0.000    0.000       11        9     2024  Maize_short_Cahul_22May_NonOptimum_26_NCC.PRM
  Tot(45)       22        5     2025    136.9    534.7   1249.3   423.00      0.0    127.6      9.3     10.7      0.0    121.5       52    214.4    167.7       77     0.000     0.000     0.000     0.000       99        0       42       25       11       13       20    10.343       44     35.5    3.667   -9.900     1.11    0.000    0.000       11        9     2025  Maize_short_Cahul_22May_NonOptimum_26_NCC.PRM
  Tot(46)       22        5     2026    223.6    534.6   1173.5   424.00      0.0    214.1      9.5      3.7      0.0    141.7       63    244.9    190.7       82     0.000     0.000     0.000     0.000      107        0       42       25       15        8       13    12.208       56     39.5    4.825   -9.900     1.25    0.000    0.000       11        9     2026  Maize_short_Cahul_22May_NonOptimum_26_NCC.PRM
  Tot(47)       22        5     2027    126.1    626.9   1488.8   426.00      0.0    125.9      0.2      0.0      0.0    140.9       40    196.5    156.1       76     0.000     0.000     0.000     0.000       93        0       42       25        2       25       20     8.863       36     30.1    2.664   -9.900     0.81    0.000    0.000       11        9     2027  Maize_short_Cahul_22May_NonOptimum_26_NCC.PRM
  Tot(48)       22        5     2028     69.1    577.6   1349.0   428.00      0.0     69.1      0.0      0.0      0.0     91.8       29    189.2    150.3       76     0.000     0.000     0.000     0.000       96        0       42       25       11       26       19     9.097       37     33.0    3.002   -9.900     1.08    0.000    0.000       11        9     2028  Maize_short_Cahul_22May_NonOptimum_26_NCC.PRM
  Tot(49)       22        5     2029    143.5    467.3   1054.3   429.00      0.0    140.8      2.7      3.3      0.0    104.5       54    235.3    182.0       90     0.000     0.000     0.000     0.000      107        0       42       25       18        6        6    14.105       66     40.1    5.657   -9.900     1.66    0.000    0.000       11        9     2029  Maize_short_Cahul_22May_NonOptimum_26_NCC.PRM
  Tot(50)       22        5     2030     79.2    637.7   1396.6   431.00      0.0     78.9      0.3      0.0      0.0    107.6       29    176.2    141.4       74     0.000     0.000     0.000     0.000       91        0       42       25        5       28       20     7.848       33     27.8    2.184   -9.900     0.79    0.000    0.000       11        9     2030  Maize_short_Cahul_22May_NonOptimum_26_NCC.PRM
  Tot(51)       22        5     2031     49.7    606.9   1406.0   432.00      0.0     49.7      0.0      0.0      0.0     78.0       23    185.2    147.5       76     0.000     0.000     0.000     0.000       94        0       42       25        5       26       19     8.786       36     30.9    2.713   -9.900     1.04    0.000    0.000       11        9     2031  Maize_short_Cahul_22May_NonOptimum_26_NCC.PRM
  Tot(52)       22        5     2032     79.8    564.9   1335.7   433.00      0.0     79.8      0.0      0.0      0.0     95.4       33    203.2    160.3       77     0.000     0.000     0.000     0.000      100        0       42       25        5       18       20    10.279       43     36.5    3.756   -9.900     1.26    0.000    0.000       11        9     2032  Maize_short_Cahul_22May_NonOptimum_26_NCC.PRM
  Tot(53)       22        5     2033     87.9    561.8   1296.0   435.00      0.0     87.9      0.0      0.0      0.0    113.0       36    181.5    144.5       76     0.000     0.000     0.000     0.000       96        0       42       25        7       25       19     8.783       38     33.2    2.919   -9.900     1.02    0.000    0.000       11        9     2033  Maize_short_Cahul_22May_NonOptimum_26_NCC.PRM
  Tot(54)       22        5     2034    103.7    544.8   1183.1   436.00      0.0    102.6      1.1      3.0      0.0    116.0       46    199.7    156.5       76     0.000     0.000     0.000     0.000       98        0       42       25       13       15       20     9.815       43     34.6    3.400   -9.900     1.08    0.000    0.000       11        9     2034  Maize_short_Cahul_22May_NonOptimum_26_NCC.PRM
  Tot(55)       22        5     2035     58.2    577.7   1338.1   437.00      0.0     58.1      0.1      0.0      0.0     88.1       27    179.6    142.6       76     0.000     0.000     0.000     0.000       95        0       42       25        5       24       20     8.944       38     31.9    2.853   -9.900     1.08    0.000    0.000       11        9     2035  Maize_short_Cahul_22May_NonOptimum_26_NCC.PRM
  Tot(56)       22        5     2036     83.8    523.1   1208.5   438.00      0.0     83.6      0.2      0.0      0.0     93.3       38    210.8    165.0       81     0.000     0.000     0.000     0.000      106        0       42       25       10       12       19    11.630       50     39.5    4.598   -9.900     1.51    0.000    0.000       11        9     2036  Maize_short_Cahul_22May_NonOptimum_26_NCC.PRM
  Tot(57)       22        5     2037     70.2    582.6   1407.2   438.00      0.0     69.2      1.0      2.2      0.0     94.7       29    184.1    146.3       77     0.000     0.000     0.000     0.000       96        0       42       25        4       24       19     9.358       38     33.2    3.104   -9.900     1.13    0.000    0.000       11        9     2037  Maize_short_Cahul_22May_NonOptimum_26_NCC.PRM
  Tot(58)       22        5     2038     96.2    613.7   1431.0   439.00      0.0     96.2      0.0      0.0      0.0    123.4       33    180.0    143.9       77     0.000     0.000     0.000     0.000       94        0       42       25        1       28       19     8.432       36     31.1    2.622   -9.900     0.89    0.000    0.000       11        9     2038  Maize_short_Cahul_22May_NonOptimum_26_NCC.PRM
  Tot(59)       22        5     2039     90.9    555.3   1262.5   440.00      0.0     90.6      0.3      0.0      0.0    105.7       38    202.2    159.4       75     0.000     0.000     0.000     0.000      107        0       42       25        7       21       20    10.854       47     40.0    4.337   -9.900     1.41    0.000    0.000       11        9     2039  Maize_short_Cahul_22May_NonOptimum_26_NCC.PRM
  Tot(60)       22        5     2040    109.5    622.1   1422.1   440.00      0.0    108.5      1.0      0.0      0.0    124.5       38    197.5    155.5       73     0.000     0.000     0.000     0.000       96        0       42       25        5       20       20     9.163       38     32.6    2.984   -9.900     0.93    0.000    0.000       11        9     2040  Maize_short_Cahul_22May_NonOptimum_26_NCC.PRM
  Tot(61)       22        5     2041    236.3    493.9   1201.9   441.00      0.0    196.2     40.1      0.0      0.0    132.1       61    262.6    204.7       94     0.000     0.000     0.000     0.000      107        0       42       25       11       18        5    15.386       67     40.8    6.275   -9.900     1.59    0.000    0.000       11        9     2041  Maize_short_Cahul_22May_NonOptimum_26_NCC.PRM
  Tot(62)       22        5     2042    103.0    572.8   1334.4   441.00      0.0    101.5      1.5      0.0      0.0    100.5       36    217.5    171.9       77     0.000     0.000     0.000     0.000       98        0       42       25        7       15       20    10.235       43     34.6    3.544   -9.900     1.13    0.000    0.000       11        9     2042  Maize_short_Cahul_22May_NonOptimum_26_NCC.PRM
  Tot(63)       22        5     2043     70.3    562.9   1294.5   441.00      0.0     70.2      0.1      0.0      0.0     88.2       31    201.5    158.7       78     0.000     0.000     0.000     0.000      100        0       42       25        7       20       19    10.466       43     36.7    3.842   -9.900     1.33    0.000    0.000       11        9     2043  Maize_short_Cahul_22May_NonOptimum_26_NCC.PRM
  Tot(64)       22        5     2044    135.4    580.0   1327.1   442.00      0.0    132.2      3.2      5.5      0.0    132.0       47    210.9    165.3       77     0.000     0.000     0.000     0.000      107        0       42       25        8       17       27     9.954       42     33.9    3.375   -9.900     0.98    0.000    0.000       11        9     2044  Maize_short_Cahul_22May_NonOptimum_26_NCC.PRM
  Tot(65)       22        5     2045     86.4    599.3   1334.0   442.00      0.0     84.5      1.9      2.5      0.0    109.0       32    181.9    145.0       76     0.000     0.000     0.000     0.000       93        0       42       25        5       27       20     8.501       36     29.9    2.543   -9.900     0.91    0.000    0.000       11        9     2045  Maize_short_Cahul_22May_NonOptimum_26_NCC.PRM
  Tot(66)       22        5     2046    128.8    583.3   1425.3   442.00      0.0    123.8      5.0      3.1      0.0    138.2       45    198.2    156.3       76     0.000     0.000     0.000     0.000       96        0       42       25        2       20       20     9.866       41     32.7    3.228   -9.900     0.96    0.000    0.000       11        9     2046  Maize_short_Cahul_22May_NonOptimum_26_NCC.PRM
  Tot(67)       22        5     2047    109.0    533.7   1250.6   442.00      0.0    105.6      3.4      7.5      0.0    121.8       43    193.4    153.3       80     0.000     0.000     0.000     0.000      101        0       42       25        9       23       18    10.632       45     37.9    4.032   -9.900     1.28    0.000    0.000       11        9     2047  Maize_short_Cahul_22May_NonOptimum_26_NCC.PRM
  Tot(68)       22        5     2048     92.0    558.1   1324.8   442.00      0.0     91.7      0.3      0.0      0.0     91.3       33    217.2    171.3       78     0.000     0.000     0.000     0.000      107        0       42       25        6       19       18    11.316       48     40.2    4.550   -9.900     1.47    0.000    0.000       11        9     2048  Maize_short_Cahul_22May_NonOptimum_26_NCC.PRM
  Tot(69)       22        5     2049     66.9    593.8   1375.6   443.00      0.0     66.9      0.0      0.9      0.0     98.3       26    171.6    138.9       79     0.000     0.000     0.000     0.000       94        0       42       25        2       32       18     8.086       33     31.2    2.525   -9.900     0.98    0.000    0.000       11        9     2049  Maize_short_Cahul_22May_NonOptimum_26_NCC.PRM
  Tot(70)       22        5     2050     83.5    601.2   1368.4   443.00      0.0     82.5      1.0      0.0      0.0     99.5       27    171.1    137.2       75     0.000     0.000     0.000     0.000       91        0       42       25        5       30       19     7.818       32     27.9    2.184   -9.900     0.88    0.000    0.000       11        9     2050  Maize_short_Cahul_22May_NonOptimum_26_NCC.PRM
  Tot(71)       22        5     2051     68.6    516.9   1301.1   443.00      0.0     68.5      0.1      0.0      0.0     95.4       35    180.6    142.5       77     0.000     0.000     0.000     0.000       98        0       42       25        6       21       18     9.668       40     35.3    3.412   -9.900     1.24    0.000    0.000       11        9     2051  Maize_short_Cahul_22May_NonOptimum_26_NCC.PRM
  Tot(72)       22        5     2052    157.7    472.9   1148.3   443.00      0.0    136.1     21.6     22.0      0.0    106.8       49    220.9    172.9       87     0.000     0.000     0.000     0.000      107        0       42       25       15       17       12    13.452       61     40.4    5.438   -9.900     1.66    0.000    0.000       11        9     2052  Maize_short_Cahul_22May_NonOptimum_26_NCC.PRM
  Tot(73)       22        5     2053    242.2    528.5   1318.2   443.00      0.0    194.2     48.0     49.1      0.0    147.7       59    206.1    162.3       78     0.000     0.000     0.000     0.000       99        0       42       25        4       20       19    10.598       45     36.0    3.819   -9.900     1.10    0.000    0.000       11        9     2053  Maize_short_Cahul_22May_NonOptimum_26_NCC.PRM
  Tot(74)       22        5     2054     62.3    671.9   1434.0   443.00      0.0     61.6      0.7      0.0      0.0     91.2       22    174.3    139.7       75     0.000     0.000     0.000     0.000       90        0       42       25        1       30       20     7.595       31     26.9    2.046   -9.900     0.78    0.000    0.000       11        9     2054  Maize_short_Cahul_22May_NonOptimum_26_NCC.PRM
  Tot(75)       22        5     2055    110.5    591.4   1382.5   443.00      0.0    108.3      2.2      6.4      0.0    120.4       38    193.4    152.8       76     0.000     0.000     0.000     0.000       94        0       42       25        4       22       20     9.049       38     30.9    2.793   -9.900     0.91    0.000    0.000       11        9     2055  Maize_short_Cahul_22May_NonOptimum_26_NCC.PRM
  Tot(76)       22        5     2056    108.8    586.3   1402.2   442.00      0.0    105.8      3.0      0.0      0.0     99.9       33    221.4    174.4       78     0.000     0.000     0.000     0.000      101        0       42       25        4       16       19    10.696       44     37.6    4.020   -9.900     1.28    0.000    0.000       11        9     2056  Maize_short_Cahul_22May_NonOptimum_26_NCC.PRM
  Tot(77)       22        5     2057    220.3    548.8   1398.6   442.00      0.0    214.8      5.5      0.0      0.0    147.2       65    286.0    221.5       86     0.000     0.000     0.000     0.000      107        0       42       25        4        3       12    14.969       62     39.6    5.931   -9.900     1.37    0.000    0.000       11        9     2057  Maize_short_Cahul_22May_NonOptimum_26_NCC.PRM
  Tot(78)       22        5     2058    101.2    564.0   1414.3   442.00      0.0     97.9      3.3      5.0      0.0    110.7       34    188.6    150.8       80     0.000     0.000     0.000     0.000       99        0       42       25        4       29       18     9.542       40     36.3    3.464   -9.900     1.17    0.000    0.000       11        9     2058  Maize_short_Cahul_22May_NonOptimum_26_NCC.PRM
  Tot(79)       22        5     2059     78.5    610.1   1421.1   442.00      0.0     77.8      0.7      0.0      0.0    102.3       29    184.2    146.6       77     0.000     0.000     0.000     0.000       95        0       42       25        5       27       18     8.378       36     32.1    2.692   -9.900     0.95    0.000    0.000       11        9     2059  Maize_short_Cahul_22May_NonOptimum_26_NCC.PRM
  Tot(80)       22        5     2060     94.8    546.9   1334.0   442.00      0.0     94.0      0.8      0.0      0.0    113.4       41    195.4    153.9       77     0.000     0.000     0.000     0.000       98        0       42       25        5       19       19    10.078       43     34.9    3.513   -9.900     1.16    0.000    0.000       11        9     2060  Maize_short_Cahul_22May_NonOptimum_26_NCC.PRM
  Tot(81)       22        5     2061     91.9    576.6   1312.7   441.00      0.0     91.6      0.3      0.0      0.0    119.4       38    181.5    144.0       77     0.000     0.000     0.000     0.000       93        0       42       25        7       26       19     8.873       36     30.2    2.683   -9.900     0.90    0.000    0.000       11        9     2061  Maize_short_Cahul_22May_NonOptimum_26_NCC.PRM
  Tot(82)       22        5     2062     50.1    630.3   1412.0   441.00      0.0     50.1      0.0      0.0      0.0     84.6       21    169.0    136.0       78     0.000     0.000     0.000     0.000       93        0       42       25        3       32       18     7.996       33     30.4    2.433   -9.900     0.97    0.000    0.000       11        9     2062  Maize_short_Cahul_22May_NonOptimum_26_NCC.PRM
  Tot(83)       22        5     2063     52.7    619.7   1352.5   441.00      0.0     52.4      0.3      2.2      0.0     73.4       22    188.1    148.8       74     0.000     0.000     0.000     0.000       92        0       42       25       10       24       21     8.503       35     28.7    2.441   -9.900     0.94    0.000    0.000       11        9     2063  Maize_short_Cahul_22May_NonOptimum_26_NCC.PRM
  Tot(84)       22        5     2064    137.0    579.3   1374.3   440.00      0.0    126.5     10.5     15.0      0.0    122.3       40    197.7    156.5       76     0.000     0.000     0.000     0.000       97        0       42       25        6       22       20     9.638       41     33.7    3.253   -9.900     1.04    0.000    0.000       11        9     2064  Maize_short_Cahul_22May_NonOptimum_26_NCC.PRM
  Tot(85)       22        5     2065     99.5    625.0   1372.0   440.00      0.0     94.2      5.3      5.5      0.0    116.6       33    182.6    144.9       75     0.000     0.000     0.000     0.000       93        0       42       25        4       25       20     8.588       36     29.8    2.557   -9.900     0.86    0.000    0.000       11        9     2065  Maize_short_Cahul_22May_NonOptimum_26_NCC.PRM
  Tot(86)       22        5     2066     77.5    617.0   1371.6   440.00      0.0     76.9      0.6      4.5      0.0     95.9       29    191.0    151.1       72     0.000     0.000     0.000     0.000       93        0       42       25        6       22       20     8.862       37     29.8    2.642   -9.900     0.93    0.000    0.000       11        9     2066  Maize_short_Cahul_22May_NonOptimum_26_NCC.PRM
  Tot(87)       22        5     2067    154.8    510.1   1294.5   439.00      0.0    153.1      1.7      3.6      0.0    130.3       62    240.0    187.2       83     0.000     0.000     0.000     0.000      107        0       42       25        8        8       16    13.274       56     39.6    5.257   -9.900     1.42    0.000    0.000       11        9     2067  Maize_short_Cahul_22May_NonOptimum_26_NCC.PRM
  Tot(88)       22        5     2068    191.8    528.0   1371.0   439.00      0.0    191.7      0.1      0.0      0.0    120.7       54    284.2    221.5       90     0.000     0.000     0.000     0.000      107        0       42       25        6       16        8    15.728       64     40.5    6.363   -9.900     1.57    0.000    0.000       11        9     2068  Maize_short_Cahul_22May_NonOptimum_26_NCC.PRM
  Tot(89)       22        5     2069    104.6    595.8   1352.3   438.00      0.0     99.5      5.1      1.9      0.0    110.2       35    202.8    161.6       76     0.000     0.000     0.000     0.000       97        0       42       25        7       23       20     9.671       41     33.6    3.254   -9.900     1.05    0.000    0.000       11        9     2069  Maize_short_Cahul_22May_NonOptimum_26_NCC.PRM
  Tot(90)       22        5     2070    104.2    580.9   1370.0   437.00      0.0    102.3      1.9      1.1      0.0    120.7       38    194.8    154.4       77     0.000     0.000     0.000     0.000       98        0       42       25        4       22       19     9.865       42     35.1    3.466   -9.900     1.10    0.000    0.000       11        9     2070  Maize_short_Cahul_22May_NonOptimum_26_NCC.PRM
  Tot(91)       22        5     2071     90.3    543.6   1290.4   437.00      0.0     89.5      0.8      0.0      0.0     97.1       31    181.8    144.4       79     0.000     0.000     0.000     0.000       98        0       42       25        6       25       18     9.419       40     35.1    3.309   -9.900     1.22    0.000    0.000       11        9     2071  Maize_short_Cahul_22May_NonOptimum_26_NCC.PRM
  Tot(92)       22        5     2072    171.8    484.4   1206.6   436.00      0.0    169.5      2.3      2.9      0.0    129.1       72    256.7    198.9       87     0.000     0.000     0.000     0.000      107        0       42       25        8        2       11    14.796       64     39.6    5.859   -9.900     1.52    0.000    0.000       11        9     2072  Maize_short_Cahul_22May_NonOptimum_26_NCC.PRM
  Tot(93)       22        5     2073     58.1    587.4   1362.0   436.00      0.0     57.1      1.0      5.0      0.0     81.9       25    178.5    142.4       76     0.000     0.000     0.000     0.000       92        0       42       25        7       27       19     8.352       34     29.2    2.437   -9.900     0.94    0.000    0.000       11        9     2073  Maize_short_Cahul_22May_NonOptimum_26_NCC.PRM
  Tot(94)       22        5     2074    222.2    440.5   1134.0   435.00      0.0    200.5     21.7     48.4      0.0    102.0       58    245.6    188.6       98     0.000     0.000     0.000     0.000      107        0       42       25       14        2        2    15.696       73     40.1    6.292   -9.900     1.81    0.000    0.000       11        9     2074  Maize_short_Cahul_22May_NonOptimum_26_NCC.PRM
  Tot(95)       22        5     2075    118.0    570.3   1370.3   435.00      0.0    116.4      1.6      1.6      0.0    136.3       43    185.3    147.9       78     0.000     0.000     0.000     0.000       95        0       42       25        4       24       19     8.985       38     32.1    2.880   -9.900     0.91    0.000    0.000       11        9     2075  Maize_short_Cahul_22May_NonOptimum_26_NCC.PRM
  Tot(96)       22        5     2076    187.4    548.5   1317.7   434.00      0.0    176.4     11.0     19.5      0.0    126.4       47    204.8    161.4       77     0.000     0.000     0.000     0.000      107        0       42       25        9       21       16    10.590       46     40.1    4.251   -9.900     1.28    0.000    0.000       11        9     2076  Maize_short_Cahul_22May_NonOptimum_26_NCC.PRM
  Tot(97)       22        5     2077    195.6    505.7   1267.7   433.00      0.0    181.1     14.5      0.0      0.0     96.3       45    281.5    219.3       97     0.000     0.000     0.000     0.000      107        0       42       25       10       10        3    15.846       70     40.4    6.406   -9.900     1.70    0.000    0.000       11        9     2077  Maize_short_Cahul_22May_NonOptimum_26_NCC.PRM
  Tot(98)       22        5     2078    137.1    615.6   1432.2   433.00      0.0    135.4      1.7      1.2      0.0    148.6       43    187.7    149.9       74     0.000     0.000     0.000     0.000       92        0       42       25        2       24       20     8.565       37     28.7    2.461   -9.900     0.77    0.000    0.000       11        9     2078  Maize_short_Cahul_22May_NonOptimum_26_NCC.PRM
  Tot(99)       22        5     2079    107.3    607.6   1369.7   432.00      0.0    102.1      5.2     10.5      0.0    113.4       33    188.5    150.1       76     0.000     0.000     0.000     0.000       93        0       42       25        7       26       20     8.584       36     29.9    2.564   -9.900     0.86    0.000    0.000       11        9     2079  Maize_short_Cahul_22May_NonOptimum_26_NCC.PRM
 Tot(100)       22        5     2080     64.9    575.7   1356.6   432.00      0.0     64.9      0.0      0.0      0.0     94.6       29    177.6    141.3       76     0.000     0.000     0.000     0.000       94        0       42       25        4       25       19     8.562       36     31.0    2.654   -9.900     1.00    0.000    0.000       11        9     2080  Maize_short_Cahul_22May_NonOptimum_26_NCC.PRM
 Tot(101)       22        5     2081    140.3    597.7   1424.2   431.00      0.0    137.9      2.4      1.2      0.0    154.2       48    196.6    155.3       76     0.000     0.000     0.000     0.000       95        0       42       25        2       21       20     9.480       39     32.0    3.037   -9.900     0.88    0.000    0.000       11        9     2081  Maize_short_Cahul_22May_NonOptimum_26_NCC.PRM
 Tot(102)       22        5     2082    118.5    530.4   1305.8   431.00      0.0    117.5      1.0      0.2      0.0    114.8       47    224.1    175.7       81     0.000     0.000     0.000     0.000      107        0       42       25        6       13       18    12.292       52     39.5    4.861   -9.900     1.43    0.000    0.000       11        9     2082  Maize_short_Cahul_22May_NonOptimum_26_NCC.PRM
 Tot(103)       22        5     2083    141.1    560.3   1355.9   430.00      0.0    130.8     10.3     17.1      0.0     97.1       40    240.5    187.4       79     0.000     0.000     0.000     0.000      107        0       42       25        5        8       20    12.154       51     39.0    4.741   -9.900     1.40    0.000    0.000       11        9     2083  Maize_short_Cahul_22May_NonOptimum_26_NCC.PRM
 Tot(104)       22        5     2084     77.7    591.3   1477.9   429.00      0.0     77.7      0.0      0.0      0.0    104.4       30    181.2    144.7       78     0.000     0.000     0.000     0.000       94        0       42       25        4       28       19     8.700       36     31.1    2.705   -9.900     0.98    0.000    0.000       11        9     2084  Maize_short_Cahul_22May_NonOptimum_26_NCC.PRM
 Tot(105)       22        5     2085    195.9    517.4   1214.8   429.00      0.0    176.9     19.0     34.9      0.0    134.2       60    222.2    173.4       79     0.000     0.000     0.000     0.000      107        0       42       25        9       10       20    11.616       52     39.6    4.605   -9.900     1.29    0.000    0.000       11        9     2085  Maize_short_Cahul_22May_NonOptimum_26_NCC.PRM
 Tot(106)       22        5     2086     40.7    609.0   1393.9   428.00      0.0     40.7      0.0      0.0      0.0     73.9       21    175.1    139.6       73     0.000     0.000     0.000     0.000       92        0       42       25        4       27       20     7.873       33     28.9    2.273   -9.900     0.92    0.000    0.000       11        9     2086  Maize_short_Cahul_22May_NonOptimum_26_NCC.PRM
 Tot(107)       22        5     2087    115.8    602.2   1360.6   428.00      0.0    115.4      0.4      0.0      0.0    137.8       40    185.1    147.1       76     0.000     0.000     0.000     0.000       94        0       42       25        5       26       19     8.680       36     31.0    2.695   -9.900     0.84    0.000    0.000       11        9     2087  Maize_short_Cahul_22May_NonOptimum_26_NCC.PRM
 Tot(108)       22        5     2088    157.9    557.2   1338.7   427.00      0.0    152.6      5.3     12.8      0.0    154.5       54    197.8    155.9       78     0.000     0.000     0.000     0.000       96        0       42       25        6       21       19     9.750       41     33.0    3.214   -9.900     0.92    0.000    0.000       11        9     2088  Maize_short_Cahul_22May_NonOptimum_26_NCC.PRM
 Tot(109)       22        5     2089    139.3    547.5   1266.4   427.00      0.0    123.9     15.4     23.6      0.0    111.9       42    197.6    155.5       76     0.000     0.000     0.000     0.000       97        0       42       25        6       19       19     9.729       41     34.1    3.318   -9.900     1.09    0.000    0.000       11        9     2089  Maize_short_Cahul_22May_NonOptimum_26_NCC.PRM
 Tot(110)       22        5     2090    120.4    579.0   1297.4   426.00      0.0    116.2      4.2      7.5      0.0    115.7       39    208.2    163.7       78     0.000     0.000     0.000     0.000       98        0       42       25        7       18       19     9.851       42     34.8    3.429   -9.900     1.06    0.000    0.000       11        9     2090  Maize_short_Cahul_22May_NonOptimum_26_NCC.PRM
 Tot(111)       22        5     2091     96.6    605.7   1384.2   425.00      0.0     96.5      0.1      0.0      0.0     99.8       29    200.7    160.5       76     0.000     0.000     0.000     0.000      107        0       42       25        8       31       17     9.657       42     40.4    3.899   -9.900     1.30    0.000    0.000       11        9     2091  Maize_short_Cahul_22May_NonOptimum_26_NCC.PRM
 Tot(112)       22        5     2092    211.0    508.1   1257.5   425.00      0.0    194.3     16.7     34.4      0.0    111.4       52    257.8    201.1       86     0.000     0.000     0.000     0.000      107        0       42       25        8       13       12    14.149       60     40.4    5.710   -9.900     1.55    0.000    0.000       11        9     2092  Maize_short_Cahul_22May_NonOptimum_26_NCC.PRM
 Tot(113)       22        5     2093     97.5    560.7   1275.9   424.00      0.0     95.9      1.6      0.6      0.0    108.8       36    192.4    153.5       77     0.000     0.000     0.000     0.000      107        0       42       25        9       25       18     9.792       42     40.3    3.948   -9.900     1.31    0.000    0.000       11        9     2093  Maize_short_Cahul_22May_NonOptimum_26_NCC.PRM
 Tot(114)       22        5     2094    180.5    602.7   1466.1   424.00      0.0    173.5      7.0     18.7      0.0    155.5       44    180.9    145.1       76     0.000     0.000     0.000     0.000       94        0       42       25        3       29       18     8.105       34     31.2    2.527   -9.900     0.80    0.000    0.000       11        9     2094  Maize_short_Cahul_22May_NonOptimum_26_NCC.PRM
 Tot(115)       22        5     2095     84.3    616.4   1386.5   423.00      0.0     84.3      0.0      0.0      0.0    101.4       29    200.5    159.5       76     0.000     0.000     0.000     0.000      107        0       42       25        5       23       22     9.215       40     39.8    3.668   -9.900     1.21    0.000    0.000       11        9     2095  Maize_short_Cahul_22May_NonOptimum_26_NCC.PRM
 Tot(116)       22        5     2096    217.6    453.7   1150.9   423.00      0.0    206.9     10.7     24.2      0.0    110.9       67    270.5    209.1       95     0.000     0.000     0.000     0.000      107        0       42       25       17        4        5    15.779       71     40.2    6.337   -9.900     1.66    0.000    0.000       11        9     2096  Maize_short_Cahul_22May_NonOptimum_26_NCC.PRM
 Tot(117)       22        5     2097     61.8    544.9   1282.2   422.00      0.0     61.8      0.0      0.0      0.0     83.8       29    195.9    154.9       79     0.000     0.000     0.000     0.000      101        0       42       25       10       21       19    10.384       44     37.8    3.923   -9.900     1.41    0.000    0.000       11        9     2097  Maize_short_Cahul_22May_NonOptimum_26_NCC.PRM
 Tot(118)       22        5     2098    163.6    537.8   1284.3   422.00      0.0    139.6     24.0     15.3      0.0    117.6       48    226.1    177.0       80     0.000     0.000     0.000     0.000      107        0       42       25        8       13       18    12.190       53     39.6    4.828   -9.900     1.40    0.000    0.000       11        9     2098  Maize_short_Cahul_22May_NonOptimum_26_NCC.PRM
 Tot(119)       22        5     2099    147.7    526.1   1355.0   421.00      0.0    145.7      2.0      2.9      0.0    132.0       56    225.0    176.3       79     0.000     0.000     0.000     0.000      107        0       42       25        6       17       18    11.701       49     40.2    4.703   -9.900     1.32    0.000    0.000       11        9     2099  Maize_short_Cahul_22May_NonOptimum_26_NCC.PRM
