AquaCrop 7.0 (August 2022) - Output created on (date) : 23-11-2022   at (time) : 12:00:12

    RunNr     Day1   Month1    Year1     Rain      ETo       GD     CO2      Irri   Infilt   Runoff    Drain   Upflow        E     E/Ex       Tr      TrW   Tr/Trx    SaltIn   SaltOut    SaltUp  SaltProf     Cycle   SaltStr  FertStr  WeedStr  TempStr   ExpStr   StoStr  BioMass  Brelative   HI    Y(dry)  Y(fresh)    WPet      Bin     Bout     DayN   MonthN    YearN
                                           mm       mm  degC.day    ppm        mm       mm       mm       mm       mm       mm        %       mm       mm        %    ton/ha    ton/ha    ton/ha    ton/ha      days       %        %        %        %        %        %    ton/ha        %       %    ton/ha   ton/ha    kg/m3   ton/ha   ton/ha
   Tot(1)        6        6     1981    199.9    451.3   1202.5   340.11      0.0    168.9     31.0      0.0      0.0     98.0       45    218.0    169.4       95     0.000     0.000     0.000     0.000      107        0       42       25       17       16        2    13.099       69     40.8    5.349   -9.900     1.69    0.000    0.000       26        9     1981  Maize_short_Chisinau_6June_NonOptimum_85_MOHC.PRM
   Tot(2)        6        6     1982    192.1    427.5   1217.6   341.22      0.0    191.6      0.5      0.0      0.0    140.8       75    245.0    190.5       99     0.000     0.000     0.000     0.000      107        0       42       25       10        1        1    16.210       74     40.1    6.500   -9.900     1.68    0.000    0.000       26        9     1982  Maize_short_Chisinau_6June_NonOptimum_85_MOHC.PRM
   Tot(3)        6        6     1983    262.8    443.0   1188.8   342.84      0.0    240.7     22.1     39.3      0.0    123.0       64    240.7    186.9      100     0.000     0.000     0.000     0.000      107        0       42       25       12        2        0    15.370       75     40.0    6.150   -9.900     1.69    0.000    0.000       26        9     1983  Maize_short_Chisinau_6June_NonOptimum_85_MOHC.PRM
   Tot(4)        6        6     1984    184.6    423.3   1101.0   344.40      0.0    181.4      3.2      7.2      0.0    136.9       71    220.8    170.5       99     0.000     0.000     0.000     0.000      107        0       42       25       16        6        1    15.077       74     40.3    6.076   -9.900     1.70    0.000    0.000       26        9     1984  Maize_short_Chisinau_6June_NonOptimum_85_MOHC.PRM
   Tot(5)        6        6     1985    281.0    437.5   1120.2   345.87      0.0    247.3     33.7     63.0      0.0    137.1       76    236.2    184.7       97     0.000     0.000     0.000     0.000      107        0       42       25       20        4        2    13.912       73     40.2    5.592   -9.900     1.50    0.000    0.000       26        9     1985  Maize_short_Chisinau_6June_NonOptimum_85_MOHC.PRM
   Tot(6)        6        6     1986    165.0    499.0   1263.3   347.19      0.0    162.3      2.7      5.9      0.0    118.1       52    247.8    192.8       93     0.000     0.000     0.000     0.000      107        0       42       25       13        7        8    13.743       67     40.2    5.527   -9.900     1.51    0.000    0.000       26        9     1986  Maize_short_Chisinau_6June_NonOptimum_85_MOHC.PRM
   Tot(7)        6        6     1987    220.8    477.8   1198.4   348.98      0.0    212.1      8.7     13.2      0.0    114.5       50    234.2    181.1      100     0.000     0.000     0.000     0.000      107        0       42       25       15        5        0    14.236       75     40.2    5.719   -9.900     1.64    0.000    0.000       26        9     1987  Maize_short_Chisinau_6June_NonOptimum_85_MOHC.PRM
   Tot(8)        6        6     1988    230.8    451.7   1243.1   351.45      0.0    200.8     30.0      1.9      0.0    101.3       48    241.5    188.8       99     0.000     0.000     0.000     0.000      107        0       42       25       14        9        0    14.703       73     40.5    5.954   -9.900     1.74    0.000    0.000       26        9     1988  Maize_short_Chisinau_6June_NonOptimum_85_MOHC.PRM
   Tot(9)        6        6     1989    317.2    425.1   1179.8   352.89      0.0    284.4     32.8     13.0      0.0    118.7       59    221.5    172.2      100     0.000     0.000     0.000     0.000      107        0       42       25       14        2        0    14.847       75     40.1    5.948   -9.900     1.75    0.000    0.000       26        9     1989  Maize_short_Chisinau_6June_NonOptimum_85_MOHC.PRM
  Tot(10)        6        6     1990    132.3    476.7   1149.2   354.16      0.0    130.1      2.2      3.3      0.0    118.7       50    204.5    161.3       91     0.000     0.000     0.000     0.000      107        0       42       25       17       14       10    11.760       62     40.5    4.758   -9.900     1.47    0.000    0.000       26        9     1990  Maize_short_Chisinau_6June_NonOptimum_85_MOHC.PRM
  Tot(11)        6        6     1991    275.4    418.6   1253.8   355.48      0.0    261.5     13.9     18.7      0.0    129.6       66    218.7    169.0      100     0.000     0.000     0.000     0.000      107        0       42       25       11        1        0    15.257       75     40.0    6.105   -9.900     1.75    0.000    0.000       26        9     1991  Maize_short_Chisinau_6June_NonOptimum_85_MOHC.PRM
  Tot(12)        6        6     1992    150.7    509.8   1276.3   356.27      0.0    145.6      5.1     13.2      0.0    120.0       50    218.1    173.2       83     0.000     0.000     0.000     0.000      107        0       42       25       13       19       15    11.171       55     40.5    4.524   -9.900     1.34    0.000    0.000       26        9     1992  Maize_short_Chisinau_6June_NonOptimum_85_MOHC.PRM
  Tot(13)        6        6     1993    182.1    473.1   1085.2   356.95      0.0    180.2      1.9      0.0      0.0    113.6       50    223.8    173.6       97     0.000     0.000     0.000     0.000      107        0       42       25       21       12        1    13.129       71     40.6    5.328   -9.900     1.58    0.000    0.000       26        9     1993  Maize_short_Chisinau_6June_NonOptimum_85_MOHC.PRM
  Tot(14)        6        6     1994    231.2    503.3   1362.6   358.63      0.0    182.4     48.8     16.1      0.0     83.3       33    262.5    206.0       97     0.000     0.000     0.000     0.000      107        0       42       25        4       21        2    15.529       68     40.9    6.354   -9.900     1.84    0.000    0.000       26        9     1994  Maize_short_Chisinau_6June_NonOptimum_85_MOHC.PRM
  Tot(15)        6        6     1995    234.6    464.0   1267.5   360.62      0.0    221.2     13.4      0.0      0.0    105.9       47    237.4    186.1      100     0.000     0.000     0.000     0.000      107        0       42       25       12        6        0    14.894       74     40.3    6.002   -9.900     1.75    0.000    0.000       26        9     1995  Maize_short_Chisinau_6June_NonOptimum_85_MOHC.PRM
  Tot(16)        6        6     1996    265.4    465.3   1136.8   362.37      0.0    227.9     37.5      0.0      0.0     93.6       35    193.4    151.9       99     0.000     0.000     0.000     0.000      107        0       42       25       23       17        0    12.330       70     40.7    5.021   -9.900     1.75    0.000    0.000       26        9     1996  Maize_short_Chisinau_6June_NonOptimum_85_MOHC.PRM
  Tot(17)        6        6     1997    315.0    407.4   1143.8   363.47      0.0    294.3     20.7      7.2      0.0    131.8       67    192.3    149.5      100     0.000     0.000     0.000     0.000      107        0       42       25       17        1        0    14.118       75     40.0    5.647   -9.900     1.74    0.000    0.000       26        9     1997  Maize_short_Chisinau_6June_NonOptimum_85_MOHC.PRM
  Tot(18)        6        6     1998    223.6    463.9   1226.6   366.50      0.0    217.1      6.5      0.0      0.0    129.6       63    237.8    184.4       97     0.000     0.000     0.000     0.000      107        0       42       25       16        9        2    13.879       71     40.6    5.628   -9.900     1.53    0.000    0.000       26        9     1998  Maize_short_Chisinau_6June_NonOptimum_85_MOHC.PRM
  Tot(19)        6        6     1999    153.2    491.5   1394.7   368.14      0.0    151.2      2.0      1.9      0.0    114.9       46    237.4    186.0       95     0.000     0.000     0.000     0.000      107        0       42       25        7       15        5    14.664       68     40.5    5.939   -9.900     1.69    0.000    0.000       26        9     1999  Maize_short_Chisinau_6June_NonOptimum_85_MOHC.PRM
  Tot(20)        6        6     2000    210.5    500.1   1200.6   369.41      0.0    203.8      6.7      0.0      0.0     93.1       37    248.7    194.4       99     0.000     0.000     0.000     0.000      107        0       42       25       18        7        0    14.336       73     40.3    5.781   -9.900     1.69    0.000    0.000       26        9     2000  Maize_short_Chisinau_6June_NonOptimum_85_MOHC.PRM
  Tot(21)        6        6     2001    206.9    490.4   1341.7   371.07      0.0    193.1     13.8      1.1      0.0    112.9       49    231.8    182.2       89     0.000     0.000     0.000     0.000      107        0       42       25        9       17        7    13.189       61     40.7    5.364   -9.900     1.56    0.000    0.000       26        9     2001  Maize_short_Chisinau_6June_NonOptimum_85_MOHC.PRM
  Tot(22)        6        6     2002    290.9    484.3   1361.3   373.16      0.0    261.3     29.6     17.0      0.0     92.9       37    246.0    191.1      100     0.000     0.000     0.000     0.000      107        0       42       25        8        4        0    15.735       73     40.0    6.294   -9.900     1.86    0.000    0.000       26        9     2002  Maize_short_Chisinau_6June_NonOptimum_85_MOHC.PRM
  Tot(23)        6        6     2003    217.4    513.0   1265.0   375.80      0.0    213.7      3.7      0.0      0.0    117.9       48    262.4    204.0      100     0.000     0.000     0.000     0.000      107        0       42       25       13        3        0    15.257       74     40.1    6.120   -9.900     1.61    0.000    0.000       26        9     2003  Maize_short_Chisinau_6June_NonOptimum_85_MOHC.PRM
  Tot(24)        6        6     2004    185.9    481.7   1215.0   377.49      0.0    178.0      7.9     18.8      0.0     87.9       36    237.4    184.1      100     0.000     0.000     0.000     0.000      107        0       42       25       12        5        0    15.117       74     40.2    6.077   -9.900     1.87    0.000    0.000       26        9     2004  Maize_short_Chisinau_6June_NonOptimum_85_MOHC.PRM
  Tot(25)        6        6     2005    243.9    464.2   1283.3   379.80      0.0    230.6     13.3     16.9      0.0    122.7       58    259.9    201.0      100     0.000     0.000     0.000     0.000      107        0       42       25        7        7        0    16.529       74     40.2    6.646   -9.900     1.74    0.000    0.000       26        9     2005  Maize_short_Chisinau_6June_NonOptimum_85_MOHC.PRM
  Tot(26)        6        6     2006    224.5    508.3   1271.8   381.90      0.0    219.8      4.7      9.9      0.0    115.6       47    268.5    209.8      100     0.000     0.000     0.000     0.000      107        0       42       25        9        9        0    15.872       73     40.3    6.391   -9.900     1.66    0.000    0.000       26        9     2006  Maize_short_Chisinau_6June_NonOptimum_85_MOHC.PRM
  Tot(27)        6        6     2007    158.6    581.7   1358.0   383.77      0.0    158.1      0.5      0.0      0.0    110.8       32    235.1    188.2       95     0.000     0.000     0.000     0.000      107        0       42       25       11       21        3    12.887       62     40.3    5.188   -9.900     1.50    0.000    0.000       26        9     2007  Maize_short_Chisinau_6June_NonOptimum_85_MOHC.PRM
  Tot(28)        6        6     2008    239.5    514.8   1289.7   385.59      0.0    227.2     12.3      4.8      0.0    119.9       47    250.8    196.4       94     0.000     0.000     0.000     0.000      107        0       42       25       14        6        4    13.658       68     40.2    5.485   -9.900     1.48    0.000    0.000       26        9     2008  Maize_short_Chisinau_6June_NonOptimum_85_MOHC.PRM
  Tot(29)        6        6     2009    175.7    556.7   1379.5   387.37      0.0    173.5      2.2      0.0      0.0    116.2       42    265.1    207.4       91     0.000     0.000     0.000     0.000      107        0       42       25        6       10        8    14.406       64     40.2    5.791   -9.900     1.52    0.000    0.000       26        9     2009  Maize_short_Chisinau_6June_NonOptimum_85_MOHC.PRM
  Tot(30)        6        6     2010    248.7    490.7   1382.9   389.85      0.0    230.1     18.6     30.3      0.0    125.5       55    241.0    187.5       91     0.000     0.000     0.000     0.000      107        0       42       25       11       12        5    14.053       66     40.6    5.709   -9.900     1.56    0.000    0.000       26        9     2010  Maize_short_Chisinau_6June_NonOptimum_85_MOHC.PRM
  Tot(31)        6        6     2011    205.0    522.5   1358.5   391.63      0.0    185.1     19.9     29.8      0.0    141.0       56    230.2    181.5       84     0.000     0.000     0.000     0.000      107        0       42       25        7       11       16    12.567       54     40.0    5.022   -9.900     1.35    0.000    0.000       26        9     2011  Maize_short_Chisinau_6June_NonOptimum_85_MOHC.PRM
  Tot(32)        6        6     2012    146.0    597.2   1443.1   393.82      0.0    144.1      1.9      3.1      0.0     98.3       30    244.6    192.7       88     0.000     0.000     0.000     0.000      107        0       42       25        5       21       11    12.352       55     40.2    4.969   -9.900     1.45    0.000    0.000       26        9     2012  Maize_short_Chisinau_6June_NonOptimum_85_MOHC.PRM
  Tot(33)        6        6     2013    345.4    493.2   1303.2   396.48      0.0    292.7     52.7     37.3      0.0    119.6       50    240.9    188.9       97     0.000     0.000     0.000     0.000      107        0       42       25       12       10        2    14.447       70     40.5    5.850   -9.900     1.62    0.000    0.000       26        9     2013  Maize_short_Chisinau_6June_NonOptimum_85_MOHC.PRM
  Tot(34)        6        6     2014    170.9    550.3   1350.4   398.55      0.0    169.2      1.7      0.0      0.0    105.2       42    270.6    211.2       89     0.000     0.000     0.000     0.000      107        0       42       25        9       10       10    14.068       64     40.2    5.654   -9.900     1.50    0.000    0.000       26        9     2014  Maize_short_Chisinau_6June_NonOptimum_85_MOHC.PRM
  Tot(35)        6        6     2015    125.4    579.0   1437.4   402.00      0.0    124.8      0.6      0.0      0.0    129.4       40    205.3    162.9       81     0.000     0.000     0.000     0.000      102        0       42       25        5       24       18    10.104       44     39.3    3.974   -9.900     1.20    0.000    0.000       26        9     2015  Maize_short_Chisinau_6June_NonOptimum_85_MOHC.PRM
  Tot(36)        6        6     2016    160.2    553.8   1415.3   404.00      0.0    154.0      6.2     12.5      0.0    129.1       43    213.2    168.6       82     0.000     0.000     0.000     0.000      107        0       42       25        8       21       15    11.079       50     40.2    4.451   -9.900     1.30    0.000    0.000       26        9     2016  Maize_short_Chisinau_6June_NonOptimum_85_MOHC.PRM
  Tot(37)        6        6     2017    253.3    534.3   1396.1   407.00      0.0    233.1     20.2     24.7      0.0    138.7       58    279.8    217.1       93     0.000     0.000     0.000     0.000      107        0       42       25        6        4        7    15.415       68     39.9    6.158   -9.900     1.47    0.000    0.000       26        9     2017  Maize_short_Chisinau_6June_NonOptimum_85_MOHC.PRM
  Tot(38)        6        6     2018    286.1    507.8   1446.5   410.00      0.0    269.1     17.0     27.6      0.0    155.4       69    278.5    216.4       94     0.000     0.000     0.000     0.000      107        0       42       25        6        2        4    16.183       70     40.1    6.485   -9.900     1.49    0.000    0.000       26        9     2018  Maize_short_Chisinau_6June_NonOptimum_85_MOHC.PRM
  Tot(39)        6        6     2019    156.4    558.4   1419.7   413.00      0.0    153.3      3.1      1.1      0.0    117.3       42    245.5    191.8       86     0.000     0.000     0.000     0.000      107        0       42       25        7        9       15    13.077       58     39.7    5.186   -9.900     1.43    0.000    0.000       26        9     2019  Maize_short_Chisinau_6June_NonOptimum_85_MOHC.PRM
  Tot(40)        6        6     2020     74.6    669.3   1588.6   416.00      0.0     74.1      0.5      0.0      0.0     93.1       21    165.9    134.1       75     0.000     0.000     0.000     0.000       88        0       42       25        1       33       19     6.752       28     25.0    1.691   -9.900     0.69    0.000    0.000       26        9     2020  Maize_short_Chisinau_6June_NonOptimum_85_MOHC.PRM
  Tot(41)        6        6     2021     25.3    726.6   1623.5   419.00      0.0     25.3      0.0      0.0      0.0     61.1       12    162.7    132.5       78     0.000     0.000     0.000     0.000       91        0       42       25        1       36       18     6.679       28     28.2    1.882   -9.900     0.84    0.000    0.000       26        9     2021  Maize_short_Chisinau_6June_NonOptimum_85_MOHC.PRM
  Tot(42)        6        6     2022     46.9    663.1   1580.0   422.00      0.0     46.7      0.2      0.0      0.0     75.9       17    166.3    134.7       78     0.000     0.000     0.000     0.000       91        0       42       25        1       35       18     6.958       30     28.2    1.965   -9.900     0.82    0.000    0.000       26        9     2022  Maize_short_Chisinau_6June_NonOptimum_85_MOHC.PRM
  Tot(43)        6        6     2023     84.9    631.7   1511.1   425.00      0.0     84.9      0.0      0.0      0.0    103.3       24    172.3    140.2       79     0.000     0.000     0.000     0.000      107        0       42       25        5       36       16     7.607       33     40.6    3.085   -9.900     1.12    0.000    0.000       26        9     2023  Maize_short_Chisinau_6June_NonOptimum_85_MOHC.PRM
  Tot(44)        6        6     2024     31.1    695.9   1669.9   428.00      0.0     30.9      0.2      0.3      0.0     62.7       13    166.7    134.8       74     0.000     0.000     0.000     0.000       89        0       42       25        1       33       19     6.941       29     26.0    1.803   -9.900     0.79    0.000    0.000       26        9     2024  Maize_short_Chisinau_6June_NonOptimum_85_MOHC.PRM
  Tot(45)        6        6     2025    143.5    580.1   1412.4   431.00      0.0    127.5     16.0      0.2      0.0     91.7       30    245.7    194.9       88     0.000     0.000     0.000     0.000      107        0       42       25        8       24       10    12.742       58     40.2    5.124   -9.900     1.52    0.000    0.000       26        9     2025  Maize_short_Chisinau_6June_NonOptimum_85_MOHC.PRM
  Tot(46)        6        6     2026    155.7    621.3   1507.4   435.00      0.0    138.6     17.1      0.0      0.0    103.0       26    179.0    145.3       78     0.000     0.000     0.000     0.000      107        0       42       25        8       35       11     8.278       38     40.6    3.363   -9.900     1.19    0.000    0.000       26        9     2026  Maize_short_Chisinau_6June_NonOptimum_85_MOHC.PRM
  Tot(47)        6        6     2027    145.8    554.4   1495.9   438.00      0.0    145.5      0.3      0.0      0.0    101.9       36    236.7    185.5       85     0.000     0.000     0.000     0.000      107        0       42       25        4       19        9    13.154       56     40.6    5.339   -9.900     1.58    0.000    0.000       26        9     2027  Maize_short_Chisinau_6June_NonOptimum_85_MOHC.PRM
  Tot(48)        6        6     2028     71.1    699.0   1619.7   442.00      0.0     70.0      1.1      2.3      0.0     98.6       20    157.7    130.2       78     0.000     0.000     0.000     0.000       87        0       42       25        0       38       18     5.974       25     23.2    1.383   -9.900     0.55    0.000    0.000       26        9     2028  Maize_short_Chisinau_6June_NonOptimum_85_MOHC.PRM
  Tot(49)        6        6     2029     94.0    594.2   1512.4   445.00      0.0     91.9      2.1      3.2      0.0    108.7       29    181.1    145.6       80     0.000     0.000     0.000     0.000       97        0       42       25        3       30       17     8.671       39     34.3    2.976   -9.900     1.03    0.000    0.000       26        9     2029  Maize_short_Chisinau_6June_NonOptimum_85_MOHC.PRM
  Tot(50)        6        6     2030    113.3    604.1   1501.4   449.00      0.0    104.6      8.7      8.6      0.0    119.8       33    184.1    147.4       76     0.000     0.000     0.000     0.000       94        0       42       25        1       27       19     8.739       38     31.0    2.709   -9.900     0.91    0.000    0.000       26        9     2030  Maize_short_Chisinau_6June_NonOptimum_85_MOHC.PRM
  Tot(51)        6        6     2031     35.5    674.5   1600.4   452.00      0.0     35.5      0.0      0.0      0.0     65.6       15    172.2    138.5       76     0.000     0.000     0.000     0.000       92        0       42       25        1       32       19     7.402       33     29.1    2.151   -9.900     0.91    0.000    0.000       26        9     2031  Maize_short_Chisinau_6June_NonOptimum_85_MOHC.PRM
  Tot(52)        6        6     2032    140.3    570.2   1501.3   456.00      0.0    136.1      4.2      0.0      0.0     75.8       25    265.0    206.8       96     0.000     0.000     0.000     0.000      107        0       42       25        4       11        4    15.594       66     40.1    6.246   -9.900     1.83    0.000    0.000       26        9     2032  Maize_short_Chisinau_6June_NonOptimum_85_MOHC.PRM
  Tot(53)        6        6     2033     70.3    675.8   1690.0   460.00      0.0     69.8      0.5      0.0      0.0     64.8       16    218.9    176.0       77     0.000     0.000     0.000     0.000      107        0       42       25        1       28       19    10.191       42     40.2    4.096   -9.900     1.44    0.000    0.000       26        9     2033  Maize_short_Chisinau_6June_NonOptimum_85_MOHC.PRM
  Tot(54)        6        6     2034     22.1    782.9   1729.8   464.00      0.0     21.9      0.2      0.0      0.0     59.7       10    150.6    124.9       80     0.000     0.000     0.000     0.000       91        0       42       25        0       41       16     5.452       23     27.3    1.491   -9.900     0.74    0.000    0.000       26        9     2034  Maize_short_Chisinau_6June_NonOptimum_85_MOHC.PRM
  Tot(55)        6        6     2035     32.9    678.8   1571.3   468.00      0.0     32.9      0.0      0.0      0.0     63.7       13    159.8    130.6       77     0.000     0.000     0.000     0.000       90        0       42       25        0       38       18     6.461       28     27.2    1.756   -9.900     0.80    0.000    0.000       26        9     2035  Maize_short_Chisinau_6June_NonOptimum_85_MOHC.PRM
  Tot(56)        6        6     2036     76.1    718.7   1742.6   472.00      0.0     72.9      3.2      1.6      0.0     78.8       17    197.6    158.3       77     0.000     0.000     0.000     0.000       92        0       42       25        0       29       19     7.961       33     29.3    2.331   -9.900     0.85    0.000    0.000       26        9     2036  Maize_short_Chisinau_6June_NonOptimum_85_MOHC.PRM
  Tot(57)        6        6     2037    238.6    553.7   1439.9   476.00      0.0    161.8     76.8      0.0      0.0     97.2       30    237.9    191.9       96     0.000     0.000     0.000     0.000      107        0       42       25        6       26        3    14.058       61     40.3    5.671   -9.900     1.69    0.000    0.000       26        9     2037  Maize_short_Chisinau_6June_NonOptimum_85_MOHC.PRM
  Tot(58)        6        6     2038    105.2    581.4   1667.3   481.00      0.0    104.1      1.1      1.4      0.0    108.7       34    198.7    158.0       79     0.000     0.000     0.000     0.000       95        0       42       25        2       25       19     9.498       38     32.3    3.065   -9.900     1.01    0.000    0.000       26        9     2038  Maize_short_Chisinau_6June_NonOptimum_85_MOHC.PRM
  Tot(59)        6        6     2039     57.7    710.8   1732.3   485.00      0.0     54.2      3.5      3.9      0.0     77.4       16    164.7    133.4       74     0.000     0.000     0.000     0.000       88        0       42       25        1       34       19     6.591       27     25.0    1.648   -9.900     0.70    0.000    0.000       26        9     2039  Maize_short_Chisinau_6June_NonOptimum_85_MOHC.PRM
  Tot(60)        6        6     2040     11.0    771.3   1751.8   489.00      0.0     11.0      0.0      0.0      0.0     49.4        8    165.8    136.0       80     0.000     0.000     0.000     0.000       97        0       42       25        0       36       16     7.315       30     34.2    2.503   -9.900     1.17    0.000    0.000       26        9     2040  Maize_short_Chisinau_6June_NonOptimum_85_MOHC.PRM
  Tot(61)        6        6     2041     32.4    772.0   1731.5   494.00      0.0     32.4      0.0      0.0      0.0     65.2       11    152.3    125.2       77     0.000     0.000     0.000     0.000       88        0       42       25        0       40       17     5.370       22     19.1    1.028   -9.900     0.48    0.000    0.000       26        9     2041  Maize_short_Chisinau_6June_NonOptimum_85_MOHC.PRM
  Tot(62)        6        6     2042    138.3    664.9   1632.0   499.00      0.0    114.8     23.5     35.8      0.0     89.7       22    193.6    154.1       78     0.000     0.000     0.000     0.000       95        0       42       25        1       27       19     8.688       35     32.1    2.788   -9.900     0.99    0.000    0.000       26        9     2042  Maize_short_Chisinau_6June_NonOptimum_85_MOHC.PRM
  Tot(63)        6        6     2043     65.4    799.5   1784.0   504.00      0.0     65.4      0.0      0.0      0.0     79.1       12    155.4    128.5       80     0.000     0.000     0.000     0.000      107        0       42       25        3       42       12     6.028       25     16.2    0.976   -9.900     0.42    0.000    0.000       26        9     2043  Maize_short_Chisinau_6June_NonOptimum_85_MOHC.PRM
  Tot(64)        6        6     2044     87.6    680.3   1712.7   508.00      0.0     83.0      4.6      9.4      0.0     94.6       22    180.1    144.7       77     0.000     0.000     0.000     0.000       90        0       42       25        1       31       19     7.748       31     27.0    2.093   -9.900     0.77    0.000    0.000       26        9     2044  Maize_short_Chisinau_6June_NonOptimum_85_MOHC.PRM
  Tot(65)        6        6     2045     85.0    667.6   1565.1   513.00      0.0     84.9      0.1      0.0      0.0     95.2       24    196.4    159.3       74     0.000     0.000     0.000     0.000      107        0       42       25        4       34       19     9.014       38     19.1    1.719   -9.900     0.59    0.000    0.000       26        9     2045  Maize_short_Chisinau_6June_NonOptimum_85_MOHC.PRM
  Tot(66)        6        6     2046    108.3    635.8   1606.3   519.00      0.0    107.7      0.6      0.0      0.0    110.0       26    178.3    144.1       79     0.000     0.000     0.000     0.000       97        0       42       25        3       34       17     8.112       35     34.4    2.793   -9.900     1.01    0.000    0.000       26        9     2046  Maize_short_Chisinau_6June_NonOptimum_85_MOHC.PRM
  Tot(67)        6        6     2047     19.2    763.4   1711.8   524.00      0.0     19.2      0.0      0.0      0.0     55.3        9    157.5    129.7       81     0.000     0.000     0.000     0.000      100        0       42       25        3       39       15     6.520       27     22.1    1.439   -9.900     0.68    0.000    0.000       26        9     2047  Maize_short_Chisinau_6June_NonOptimum_85_MOHC.PRM
  Tot(68)        6        6     2048     48.5    692.7   1729.6   529.00      0.0     48.5      0.0      0.0      0.0     82.0       17    160.1    130.3       75     0.000     0.000     0.000     0.000       89        0       42       25        1       36       19     6.537       27     22.5    1.472   -9.900     0.61    0.000    0.000       26        9     2048  Maize_short_Chisinau_6June_NonOptimum_85_MOHC.PRM
  Tot(69)        6        6     2049     58.3    732.3   1684.8   535.00      0.0     57.8      0.5      0.0      0.0     83.0       15    159.0    130.9       80     0.000     0.000     0.000     0.000      105        0       42       25        3       40       15     6.352       26     39.6    2.516   -9.900     1.04    0.000    0.000       26        9     2049  Maize_short_Chisinau_6June_NonOptimum_85_MOHC.PRM
  Tot(70)        6        6     2050     63.1    697.4   1804.4   541.00      0.0     63.0      0.1      0.0      0.0     92.7       20    171.2    137.9       76     0.000     0.000     0.000     0.000       90        0       42       25        0       32       19     7.629       30     27.0    2.063   -9.900     0.79    0.000    0.000       26        9     2050  Maize_short_Chisinau_6June_NonOptimum_85_MOHC.PRM
  Tot(71)        6        6     2051     55.0    687.3   1654.0   546.00      0.0     55.0      0.0      0.0      0.0     77.1       16    164.0    133.7       77     0.000     0.000     0.000     0.000       90        0       42       25        1       36       18     6.827       28     27.2    1.856   -9.900     0.81    0.000    0.000       26        9     2051  Maize_short_Chisinau_6June_NonOptimum_85_MOHC.PRM
  Tot(72)        6        6     2052     68.3    712.8   1626.2   552.00      0.0     66.3      2.0      0.0      0.0     70.4       14    198.3    162.1       83     0.000     0.000     0.000     0.000      107        0       42       25        3       39       13     9.229       38     40.7    3.756   -9.900     1.40    0.000    0.000       26        9     2052  Maize_short_Chisinau_6June_NonOptimum_85_MOHC.PRM
  Tot(73)        6        6     2053     78.0    656.2   1692.2   558.00      0.0     73.5      4.5      7.0      0.0     92.8       21    161.4    131.7       78     0.000     0.000     0.000     0.000       91        0       42       25        0       36       17     6.847       28     28.2    1.934   -9.900     0.78    0.000    0.000       26        9     2053  Maize_short_Chisinau_6June_NonOptimum_85_MOHC.PRM
  Tot(74)        6        6     2054     54.1    680.7   1759.8   564.00      0.0     53.2      0.9      2.7      0.0     77.6       16    158.1    129.7       80     0.000     0.000     0.000     0.000      100        0       42       25        1       39       15     6.548       26     36.6    2.396   -9.900     1.04    0.000    0.000       26        9     2054  Maize_short_Chisinau_6June_NonOptimum_85_MOHC.PRM
  Tot(75)        6        6     2055    105.7    733.0   1715.6   571.00      0.0     91.2     14.5      0.0      0.0     74.7       14    155.3    127.8       80     0.000     0.000     0.000     0.000       93        0       42       25        1       40       17     6.147       26     24.7    1.517   -9.900     0.71    0.000    0.000       26        9     2055  Maize_short_Chisinau_6June_NonOptimum_85_MOHC.PRM
  Tot(76)        6        6     2056    251.0    613.9   1575.8   577.00      0.0    177.4     73.6     47.3      0.0    120.0       31    180.5    146.2       79     0.000     0.000     0.000     0.000      107        0       42       25        5       35       14     8.197       34     40.6    3.329   -9.900     1.11    0.000    0.000       26        9     2056  Maize_short_Chisinau_6June_NonOptimum_85_MOHC.PRM
  Tot(77)        6        6     2057    211.6    599.8   1568.2   583.00      0.0    190.1     21.5     14.0      0.0    135.0       39    183.2    146.4       77     0.000     0.000     0.000     0.000      107        0       42       25        7       29       16     8.528       37     40.3    3.435   -9.900     1.08    0.000    0.000       26        9     2057  Maize_short_Chisinau_6June_NonOptimum_85_MOHC.PRM
  Tot(78)        6        6     2058     56.5    760.0   1779.9   590.00      0.0     56.5      0.0      0.0      0.0     70.9       12    156.2    128.5       80     0.000     0.000     0.000     0.000       92        0       42       25        0       39       17     6.289       26     28.3    1.779   -9.900     0.80    0.000    0.000       26        9     2058  Maize_short_Chisinau_6June_NonOptimum_85_MOHC.PRM
  Tot(79)        6        6     2059    137.8    624.8   1724.8   597.00      0.0    137.8      0.0      0.0      0.0    135.6       40    202.6    160.2       76     0.000     0.000     0.000     0.000       95        0       42       25        0       23       19     9.525       38     13.2    1.256   -9.900     0.38    0.000    0.000       26        9     2059  Maize_short_Chisinau_6June_NonOptimum_85_MOHC.PRM
  Tot(80)        6        6     2060     89.4    779.9   1868.1   604.00      0.0     86.5      2.9      0.9      0.0     98.8       16    159.4    131.4       82     0.000     0.000     0.000     0.000      107        0       42       25        2       41       11     6.560       26     34.8    2.286   -9.900     0.89    0.000    0.000       26        9     2060  Maize_short_Chisinau_6June_NonOptimum_85_MOHC.PRM
  Tot(81)        6        6     2061     49.9    761.2   1811.5   611.00      0.0     48.1      1.8      5.6      0.0     65.0       11    160.6    133.0       82     0.000     0.000     0.000     0.000      107        0       42       25        2       41       13     6.602       27     40.7    2.686   -9.900     1.19    0.000    0.000       26        9     2061  Maize_short_Chisinau_6June_NonOptimum_85_MOHC.PRM
  Tot(82)        6        6     2062     92.3    768.9   1836.6   618.00      0.0     86.9      5.4      0.0      0.0     82.0       15    196.9    161.7       83     0.000     0.000     0.000     0.000      107        0       42       25        1       40       11     8.605       34     32.3    2.777   -9.900     1.00    0.000    0.000       26        9     2062  Maize_short_Chisinau_6June_NonOptimum_85_MOHC.PRM
  Tot(83)        6        6     2063     33.2    695.4   1702.3   625.00      0.0     33.0      0.2      1.9      0.0     61.6       13    157.9    128.6       74     0.000     0.000     0.000     0.000       87        0       42       25        1       36       19     6.318       26     23.1    1.458   -9.900     0.69    0.000    0.000       26        9     2063  Maize_short_Chisinau_6June_NonOptimum_85_MOHC.PRM
  Tot(84)        6        6     2064     44.2    709.7   1844.5   632.00      0.0     44.2      0.0      0.0      0.0     71.3       15    170.8    137.9       76     0.000     0.000     0.000     0.000       92        0       42       25        0       32       18     7.769       32     10.7    0.830   -9.900     0.35    0.000    0.000       26        9     2064  Maize_short_Chisinau_6June_NonOptimum_85_MOHC.PRM
  Tot(85)        6        6     2065     46.2    693.8   1706.4   639.00      0.0     46.2      0.0      0.0      0.0     64.2       14    173.5    140.1       78     0.000     0.000     0.000     0.000       94        0       42       25        0       32       18     7.878       33     31.2    2.458   -9.900     1.05    0.000    0.000       26        9     2065  Maize_short_Chisinau_6June_NonOptimum_85_MOHC.PRM
  Tot(86)        6        6     2066     64.5    701.9   1817.5   647.00      0.0     64.3      0.2      0.0      0.0     82.0       18    191.7    155.3       77     0.000     0.000     0.000     0.000      107        0       42       25        1       35       19     8.950       36     37.0    3.310   -9.900     1.21    0.000    0.000       26        9     2066  Maize_short_Chisinau_6June_NonOptimum_85_MOHC.PRM
  Tot(87)        6        6     2067     74.9    759.1   1884.2   654.00      0.0     73.7      1.2      1.1      0.0    103.7       19    156.5    128.4       79     0.000     0.000     0.000     0.000       89        0       42       25        0       39       17     6.074       24     25.3    1.536   -9.900     0.60    0.000    0.000       26        9     2067  Maize_short_Chisinau_6June_NonOptimum_85_MOHC.PRM
  Tot(88)        6        6     2068    105.1    657.9   1753.7   662.00      0.0    100.4      4.7      1.5      0.0     91.9       27    218.0    171.2       76     0.000     0.000     0.000     0.000       97        0       42       25        0       16       20    10.169       41     21.6    2.200   -9.900     0.72    0.000    0.000       26        9     2068  Maize_short_Chisinau_6June_NonOptimum_85_MOHC.PRM
  Tot(89)        6        6     2069    130.7    659.8   1754.0   669.00      0.0    116.5     14.2     26.0      0.0    112.4       29    176.3    141.2       74     0.000     0.000     0.000     0.000       89        0       42       25        1       30       20     7.690       31     18.1    1.393   -9.900     0.48    0.000    0.000       26        9     2069  Maize_short_Chisinau_6June_NonOptimum_85_MOHC.PRM
  Tot(90)        6        6     2070     13.9    739.6   1843.9   677.00      0.0     13.9      0.0      0.0      0.0     49.7        9    151.1    124.2       79     0.000     0.000     0.000     0.000       89        0       42       25        0       39       16     5.917       24     26.3    1.556   -9.900     0.79    0.000    0.000       26        9     2070  Maize_short_Chisinau_6June_NonOptimum_85_MOHC.PRM
  Tot(91)        6        6     2071    148.4    729.5   1890.8   685.00      0.0    140.5      7.9      0.0      0.0    106.1       20    162.0    133.2       80     0.000     0.000     0.000     0.000      107        0       42       25        0       40       12     6.843       27     22.0    1.504   -9.900     0.56    0.000    0.000       26        9     2071  Maize_short_Chisinau_6June_NonOptimum_85_MOHC.PRM
  Tot(92)        6        6     2072     36.8    731.5   1867.2   693.00      0.0     36.6      0.2      0.0      0.0     69.7       13    153.9    126.2       77     0.000     0.000     0.000     0.000       87        0       42       25        0       38       18     5.987       24     24.2    1.447   -9.900     0.65    0.000    0.000       26        9     2072  Maize_short_Chisinau_6June_NonOptimum_85_MOHC.PRM
  Tot(93)        6        6     2073    119.7    684.7   1783.7   701.00      0.0    116.9      2.8      2.2      0.0    126.2       28    168.7    136.3       76     0.000     0.000     0.000     0.000      107        0       42       25        1       34       16     7.240       29     40.4    2.925   -9.900     0.99    0.000    0.000       26        9     2073  Maize_short_Chisinau_6June_NonOptimum_85_MOHC.PRM
  Tot(94)        6        6     2074     75.3    752.9   1809.6   709.00      0.0     73.9      1.4      0.0      0.0     82.3       15    161.8    132.0       76     0.000     0.000     0.000     0.000       90        0       42       25        0       37       18     6.320       26     26.2    1.655   -9.900     0.72    0.000    0.000       26        9     2074  Maize_short_Chisinau_6June_NonOptimum_85_MOHC.PRM
  Tot(95)        6        6     2075     29.2    743.8   1910.1   717.00      0.0     29.2      0.0      0.0      0.0     59.0       11    164.3    134.8       83     0.000     0.000     0.000     0.000      104        0       42       25        0       39       14     7.665       31     26.6    2.040   -9.900     0.92    0.000    0.000       26        9     2075  Maize_short_Chisinau_6June_NonOptimum_85_MOHC.PRM
  Tot(96)        6        6     2076     29.0    752.9   1890.3   725.00      0.0     29.0      0.0      0.0      0.0     64.4       12    158.1    129.0       76     0.000     0.000     0.000     0.000       91        0       42       25        0       36       18     6.507       26     23.2    1.511   -9.900     0.70    0.000    0.000       26        9     2076  Maize_short_Chisinau_6June_NonOptimum_85_MOHC.PRM
  Tot(97)        6        6     2077    121.3    686.8   1816.6   733.00      0.0    109.9     11.4      0.0      0.0     87.1       21    208.9    168.6       81     0.000     0.000     0.000     0.000      107        0       42       25        1       35       10    10.431       42      5.6    0.584   -9.900     0.20    0.000    0.000       26        9     2077  Maize_short_Chisinau_6June_NonOptimum_85_MOHC.PRM
  Tot(98)        6        6     2078    148.4    671.2   1834.9   742.00      0.0    143.7      4.7      1.5      0.0    122.3       34    206.9    165.6       73     0.000     0.000     0.000     0.000      107        0       42       25        2       28       19     9.791       40     10.6    1.038   -9.900     0.32    0.000    0.000       26        9     2078  Maize_short_Chisinau_6June_NonOptimum_85_MOHC.PRM
  Tot(99)        6        6     2079     28.2    760.0   1928.3   750.00      0.0     28.2      0.0      0.0      0.0     64.3       11    159.4    131.7       81     0.000     0.000     0.000     0.000       96        0       42       25        0       38       16     6.790       27     29.9    2.028   -9.900     0.92    0.000    0.000       26        9     2079  Maize_short_Chisinau_6June_NonOptimum_85_MOHC.PRM
 Tot(100)        6        6     2080     84.2    797.6   1999.6   758.00      0.0     84.2      0.0      0.0      0.0     96.2       18    199.0    160.3       80     0.000     0.000     0.000     0.000       99        0       42       25        0       28       18     8.878       36      9.1    0.806   -9.900     0.27    0.000    0.000       26        9     2080  Maize_short_Chisinau_6June_NonOptimum_85_MOHC.PRM
 Tot(101)        6        6     2081    103.4    692.0   1826.3   767.00      0.0     94.5      8.9      8.6      0.0    112.4       24    161.0    130.1       76     0.000     0.000     0.000     0.000       95        0       42       25        1       35       17     6.873       29     30.1    2.066   -9.900     0.76    0.000    0.000       26        9     2081  Maize_short_Chisinau_6June_NonOptimum_85_MOHC.PRM
 Tot(102)        6        6     2082     50.2    776.7   1950.5   775.00      0.0     47.4      2.8      2.9      0.0     79.3       14    152.5    124.9       76     0.000     0.000     0.000     0.000       88        0       42       25        0       38       18     5.799       23      2.8    0.163   -9.900     0.07    0.000    0.000       26        9     2082  Maize_short_Chisinau_6June_NonOptimum_85_MOHC.PRM
 Tot(103)        6        6     2083     30.5    795.1   1914.0   784.00      0.0     30.4      0.1      0.0      0.0     67.5       11    150.9    124.7       81     0.000     0.000     0.000     0.000       94        0       42       25        0       41       16     5.787       23      0.6    0.035   -9.900     0.02    0.000    0.000       26        9     2083  Maize_short_Chisinau_6June_NonOptimum_85_MOHC.PRM
 Tot(104)        6        6     2084     17.6    743.0   1894.3   792.00      0.0     17.6      0.0      0.0      0.0     51.7       10    157.2    127.6       75     0.000     0.000     0.000     0.000       87        0       42       25        1       35       19     6.397       26      7.0    0.448   -9.900     0.22    0.000    0.000       26        9     2084  Maize_short_Chisinau_6June_NonOptimum_85_MOHC.PRM
 Tot(105)        6        6     2085     69.2    773.7   1968.8   801.00      0.0     69.2      0.0      0.0      0.0     91.8       17    168.0    137.1       79     0.000     0.000     0.000     0.000       95        0       42       25        0       37       17     6.960       28     31.4    2.185   -9.900     0.88    0.000    0.000       26        9     2085  Maize_short_Chisinau_6June_NonOptimum_85_MOHC.PRM
 Tot(106)        6        6     2086     64.2    748.1   1936.9   810.00      0.0     64.0      0.2      0.0      0.0     89.9       17    177.0    144.6       78     0.000     0.000     0.000     0.000      107        0       42       25        0       38       19     7.920       32     38.9    3.083   -9.900     1.16    0.000    0.000       26        9     2086  Maize_short_Chisinau_6June_NonOptimum_85_MOHC.PRM
 Tot(107)        6        6     2087     24.5    797.6   1966.1   818.00      0.0     24.5      0.0      0.0      0.0     51.3        8    158.9    131.8       85     0.000     0.000     0.000     0.000      107        0       42       25        1       41       12     6.988       29     22.2    1.550   -9.900     0.74    0.000    0.000       26        9     2087  Maize_short_Chisinau_6June_NonOptimum_85_MOHC.PRM
 Tot(108)        6        6     2088     24.9    855.6   1968.3   827.00      0.0     24.8      0.1      0.0      0.0     48.4        7    154.8    127.8       81     0.000     0.000     0.000     0.000       98        0       42       25        0       40       15     6.281       26     10.8    0.681   -9.900     0.34    0.000    0.000       26        9     2088  Maize_short_Chisinau_6June_NonOptimum_85_MOHC.PRM
 Tot(109)        6        6     2089     46.9    827.6   1987.6   836.00      0.0     46.6      0.3      0.0      0.0     67.1       11    160.3    132.3       81     0.000     0.000     0.000     0.000      107        0       42       25        1       41       14     6.367       26      7.8    0.498   -9.900     0.22    0.000    0.000       26        9     2089  Maize_short_Chisinau_6June_NonOptimum_85_MOHC.PRM
 Tot(110)        6        6     2090    133.5    738.2   1922.2   845.00      0.0    103.9     29.6     32.4      0.0     86.8       17    166.8    136.2       75     0.000     0.000     0.000     0.000      107        0       42       25        0       37       16     6.746       28     19.2    1.297   -9.900     0.51    0.000    0.000       26        9     2090  Maize_short_Chisinau_6June_NonOptimum_85_MOHC.PRM
 Tot(111)        6        6     2091     25.8    893.4   2074.0   854.00      0.0     25.0      0.8      0.0      0.0     64.6        9    145.8    121.5       84     0.000     0.000     0.000     0.000       98        0       42       25        0       43       14     5.291       22      1.2    0.064   -9.900     0.03    0.000    0.000       26        9     2091  Maize_short_Chisinau_6June_NonOptimum_85_MOHC.PRM
 Tot(112)        6        6     2092     49.8    836.8   1955.2   863.00      0.0     49.6      0.2      0.0      0.0     82.2       13    153.0    125.9       79     0.000     0.000     0.000     0.000       94        0       42       25        0       40       16     5.823       24     27.2    1.585   -9.900     0.69    0.000    0.000       26        9     2092  Maize_short_Chisinau_6June_NonOptimum_85_MOHC.PRM
 Tot(113)        6        6     2093     56.1    855.7   2044.8   872.00      0.0     56.0      0.1      0.0      0.0     86.9       12    144.6    120.1       84     0.000     0.000     0.000     0.000      107        0       42       25        0       42       13     5.347       22     10.6    0.564   -9.900     0.24    0.000    0.000       26        9     2093  Maize_short_Chisinau_6June_NonOptimum_85_MOHC.PRM
 Tot(114)        6        6     2094     58.4    839.7   2010.8   881.00      0.0     56.3      2.1      0.0      0.0     71.4       11    153.4    126.4       81     0.000     0.000     0.000     0.000       94        0       42       25        0       40       16     6.031       25     11.2    0.674   -9.900     0.32    0.000    0.000       26        9     2094  Maize_short_Chisinau_6June_NonOptimum_85_MOHC.PRM
 Tot(115)        6        6     2095     14.9    839.0   1976.4   890.00      0.0     14.9      0.0      0.0      0.0     52.5        8    150.9    125.5       85     0.000     0.000     0.000     0.000      107        0       42       25        1       43       13     5.866       25     19.4    1.139   -9.900     0.56    0.000    0.000       26        9     2095  Maize_short_Chisinau_6June_NonOptimum_85_MOHC.PRM
 Tot(116)        6        6     2096     13.8    833.2   2081.0   899.00      0.0     13.8      0.0      0.0      0.0     53.0        9    155.3    126.8       76     0.000     0.000     0.000     0.000       91        0       42       25        0       36       17     6.237       26      6.2    0.387   -9.900     0.19    0.000    0.000       26        9     2096  Maize_short_Chisinau_6June_NonOptimum_85_MOHC.PRM
 Tot(117)        6        6     2097     61.3    777.9   1919.3   908.00      0.0     59.6      1.7      0.0      0.0     71.1       13    200.4    163.2       85     0.000     0.000     0.000     0.000      107        0       42       25        0       32       15     9.427       39     40.3    3.800   -9.900     1.40    0.000    0.000       26        9     2097  Maize_short_Chisinau_6June_NonOptimum_85_MOHC.PRM
 Tot(118)        6        6     2098     51.6    775.7   1978.5   917.00      0.0     51.6      0.0      0.0      0.0     73.4       12    158.1    130.9       86     0.000     0.000     0.000     0.000      107        0       42       25        1       42       11     6.723       28     32.5    2.185   -9.900     0.94    0.000    0.000       26        9     2098  Maize_short_Chisinau_6June_NonOptimum_85_MOHC.PRM
 Tot(119)        6        6     2099     85.2    677.9   1906.1   927.00      0.0     81.3      3.9      4.9      0.0     92.3       25    188.4    149.1       74     0.000     0.000     0.000     0.000       93        0       42       25        0       23       20     8.501       36     20.7    1.758   -9.900     0.65    0.000    0.000       26        9     2099  Maize_short_Chisinau_6June_NonOptimum_85_MOHC.PRM
