AquaCrop 7.0 (August 2022) - Output created on (date) : 23-11-2022   at (time) : 12:17:38

    RunNr     Day1   Month1    Year1     Rain      ETo       GD     CO2      Irri   Infilt   Runoff    Drain   Upflow        E     E/Ex       Tr      TrW   Tr/Trx    SaltIn   SaltOut    SaltUp  SaltProf     Cycle   SaltStr  FertStr  WeedStr  TempStr   ExpStr   StoStr  BioMass  Brelative   HI    Y(dry)  Y(fresh)    WPet      Bin     Bout     DayN   MonthN    YearN
                                           mm       mm  degC.day    ppm        mm       mm       mm       mm       mm       mm        %       mm       mm        %    ton/ha    ton/ha    ton/ha    ton/ha      days       %        %        %        %        %        %    ton/ha        %       %    ton/ha   ton/ha    kg/m3   ton/ha   ton/ha
   Tot(1)        6        6     1981    323.6    420.3   1169.7   340.11      0.0    268.1     55.5     55.9      0.0    129.2       64    209.4    163.7      100     0.000     0.000     0.000     0.000      107        0       42       25       19        7        0    13.652       75     40.4    5.513   -9.900     1.63    0.000    0.000       26        9     1981  Maize_Short_Soroca_6June_NonOptimum_26_NCC.PRM
   Tot(2)        6        6     1982    276.8    416.0   1171.0   341.22      0.0    237.3     39.5     48.6      0.0    148.1       82    232.7    181.3       97     0.000     0.000     0.000     0.000      107        0       42       25       12        3        3    15.472       72     40.2    6.214   -9.900     1.63    0.000    0.000       26        9     1982  Maize_Short_Soroca_6June_NonOptimum_26_NCC.PRM
   Tot(3)        6        6     1983    213.6    428.2   1169.7   342.84      0.0    208.8      4.8      6.9      0.0    121.7       64    228.0    177.0      100     0.000     0.000     0.000     0.000      107        0       42       25       13        1        0    15.114       75     40.0    6.047   -9.900     1.73    0.000    0.000       26        9     1983  Maize_Short_Soroca_6June_NonOptimum_26_NCC.PRM
   Tot(4)        6        6     1984    282.0    406.7   1061.7   344.40      0.0    268.3     13.7     12.2      0.0    154.8       87    216.6    166.7      100     0.000     0.000     0.000     0.000      107        0       42       25       20        1        0    14.959       76     40.1    5.996   -9.900     1.61    0.000    0.000       26        9     1984  Maize_Short_Soroca_6June_NonOptimum_26_NCC.PRM
   Tot(5)        6        6     1985    357.2    428.1   1082.1   345.87      0.0    308.6     48.6     56.8      0.0    145.6       82    232.9    181.8      100     0.000     0.000     0.000     0.000      107        0       42       25       23        2        1    13.876       75     40.1    5.558   -9.900     1.47    0.000    0.000       26        9     1985  Maize_Short_Soroca_6June_NonOptimum_26_NCC.PRM
   Tot(6)        6        6     1986    147.6    489.6   1212.2   347.19      0.0    146.7      0.9      0.0      0.0    114.5       49    234.2    182.3       96     0.000     0.000     0.000     0.000      107        0       42       25       17        9        5    13.337       69     40.4    5.383   -9.900     1.54    0.000    0.000       26        9     1986  Maize_Short_Soroca_6June_NonOptimum_26_NCC.PRM
   Tot(7)        6        6     1987    211.9    451.8   1159.6   348.98      0.0    206.3      5.6      6.4      0.0    114.2       50    205.0    159.0      100     0.000     0.000     0.000     0.000      107        0       42       25       17        6        0    13.458       73     40.0    5.385   -9.900     1.69    0.000    0.000       26        9     1987  Maize_Short_Soroca_6June_NonOptimum_26_NCC.PRM
   Tot(8)        6        6     1988    248.1    413.1   1202.7   351.45      0.0    238.8      9.3     15.2      0.0    134.4       71    218.9    170.8      100     0.000     0.000     0.000     0.000      107        0       42       25       16        3        0    14.566       75     40.2    5.854   -9.900     1.66    0.000    0.000       26        9     1988  Maize_Short_Soroca_6June_NonOptimum_26_NCC.PRM
   Tot(9)        6        6     1989    414.3    403.4   1141.8   352.89      0.0    339.5     74.8     37.5      0.0    122.6       65    206.5    160.3      100     0.000     0.000     0.000     0.000      107        0       42       25       16        2        0    14.420       75     40.0    5.772   -9.900     1.75    0.000    0.000       26        9     1989  Maize_Short_Soroca_6June_NonOptimum_26_NCC.PRM
  Tot(10)        6        6     1990    176.4    440.5   1094.6   354.16      0.0    167.9      8.5     13.1      0.0    123.5       60    210.7    165.4       98     0.000     0.000     0.000     0.000      107        0       42       25       20       12        2    12.780       71     40.6    5.189   -9.900     1.55    0.000    0.000       26        9     1990  Maize_Short_Soroca_6June_NonOptimum_26_NCC.PRM
  Tot(11)        6        6     1991    371.0    403.5   1213.4   355.48      0.0    322.1     48.9     40.9      0.0    147.2       75    199.8    154.2      100     0.000     0.000     0.000     0.000      107        0       42       25       13        0        0    14.871       76     40.0    5.948   -9.900     1.71    0.000    0.000       26        9     1991  Maize_Short_Soroca_6June_NonOptimum_26_NCC.PRM
  Tot(12)        6        6     1992    153.8    498.8   1261.7   356.27      0.0    153.4      0.4      0.0      0.0    126.9       53    219.7    174.7       85     0.000     0.000     0.000     0.000      107        0       42       25       15       19        8    11.527       59     40.6    4.677   -9.900     1.35    0.000    0.000       26        9     1992  Maize_Short_Soroca_6June_NonOptimum_26_NCC.PRM
  Tot(13)        6        6     1993    276.6    430.4   1056.4   356.95      0.0    234.0     42.6      0.0      0.0    116.0       57    211.2    163.3      100     0.000     0.000     0.000     0.000      107        0       42       25       23        5        0    13.556       74     40.3    5.458   -9.900     1.67    0.000    0.000       26        9     1993  Maize_Short_Soroca_6June_NonOptimum_26_NCC.PRM
  Tot(14)        6        6     1994    213.3    492.9   1309.0   358.63      0.0    170.1     43.2     19.9      0.0     89.2       35    245.3    193.4       95     0.000     0.000     0.000     0.000      107        0       42       25        7       23        3    14.550       65     40.9    5.953   -9.900     1.78    0.000    0.000       26        9     1994  Maize_Short_Soroca_6June_NonOptimum_26_NCC.PRM
  Tot(15)        6        6     1995    377.3    450.2   1246.1   360.62      0.0    331.3     46.0     26.1      0.0    119.3       55    236.5    184.6      100     0.000     0.000     0.000     0.000      107        0       42       25       13        2        0    15.025       75     40.1    6.022   -9.900     1.69    0.000    0.000       26        9     1995  Maize_Short_Soroca_6June_NonOptimum_26_NCC.PRM
  Tot(16)        6        6     1996    392.3    424.9   1100.1   362.37      0.0    340.3     52.0     22.4      0.0    133.1       61    197.5    153.4      100     0.000     0.000     0.000     0.000      107        0       42       25       24        2        0    12.915       75     40.1    5.180   -9.900     1.57    0.000    0.000       26        9     1996  Maize_Short_Soroca_6June_NonOptimum_26_NCC.PRM
  Tot(17)        6        6     1997    318.9    401.6   1109.9   363.47      0.0    300.0     18.9     23.7      0.0    142.6       74    190.5    147.8      100     0.000     0.000     0.000     0.000      107        0       42       25       19        1        0    13.839       75     40.0    5.540   -9.900     1.66    0.000    0.000       26        9     1997  Maize_Short_Soroca_6June_NonOptimum_26_NCC.PRM
  Tot(18)        6        6     1998    287.9    420.7   1171.6   366.50      0.0    270.1     17.8     35.9      0.0    126.6       70    221.8    171.5      100     0.000     0.000     0.000     0.000      107        0       42       25       20        2        0    13.914       75     40.1    5.582   -9.900     1.60    0.000    0.000       26        9     1998  Maize_Short_Soroca_6June_NonOptimum_26_NCC.PRM
  Tot(19)        6        6     1999    165.9    483.7   1378.8   368.14      0.0    165.9      0.0      0.0      0.0    116.2       46    239.8    187.0       99     0.000     0.000     0.000     0.000      107        0       42       25        7       13        1    15.460       72     40.5    6.269   -9.900     1.76    0.000    0.000       26        9     1999  Maize_Short_Soroca_6June_NonOptimum_26_NCC.PRM
  Tot(20)        6        6     2000    297.3    455.6   1161.2   369.41      0.0    282.8     14.5     20.8      0.0    148.9       68    232.4    181.5      100     0.000     0.000     0.000     0.000      107        0       42       25       20        2        0    14.446       75     40.2    5.805   -9.900     1.52    0.000    0.000       26        9     2000  Maize_Short_Soroca_6June_NonOptimum_26_NCC.PRM
  Tot(21)        6        6     2001    265.2    462.1   1291.3   371.07      0.0    251.0     14.2      4.4      0.0    148.7       72    243.1    189.8       95     0.000     0.000     0.000     0.000      107        0       42       25       12        9        3    14.378       69     40.5    5.829   -9.900     1.49    0.000    0.000       26        9     2001  Maize_Short_Soroca_6June_NonOptimum_26_NCC.PRM
  Tot(22)        6        6     2002    389.7    467.2   1321.1   373.16      0.0    352.6     37.1     42.5      0.0    111.1       45    233.9    182.1      100     0.000     0.000     0.000     0.000      107        0       42       25       11        4        0    15.029       72     40.0    6.012   -9.900     1.74    0.000    0.000       26        9     2002  Maize_Short_Soroca_6June_NonOptimum_26_NCC.PRM
  Tot(23)        6        6     2003    334.8    489.0   1220.9   375.80      0.0    285.0     49.8     63.3      0.0    133.7       57    245.9    190.9      100     0.000     0.000     0.000     0.000      107        0       42       25       15        2        0    14.754       74     40.0    5.907   -9.900     1.56    0.000    0.000       26        9     2003  Maize_Short_Soroca_6June_NonOptimum_26_NCC.PRM
  Tot(24)        6        6     2004    263.1    450.3   1178.8   377.49      0.0    242.3     20.8      9.2      0.0     93.0       39    210.9    164.2      100     0.000     0.000     0.000     0.000      107        0       42       25       15        4        0    14.536       73     40.0    5.815   -9.900     1.91    0.000    0.000       26        9     2004  Maize_Short_Soroca_6June_NonOptimum_26_NCC.PRM
  Tot(25)        6        6     2005    181.1    447.2   1239.3   379.80      0.0    175.6      5.5      8.2      0.0    113.8       56    245.0    189.7       99     0.000     0.000     0.000     0.000      107        0       42       25        9        6        1    16.028       73     40.2    6.443   -9.900     1.80    0.000    0.000       26        9     2005  Maize_Short_Soroca_6June_NonOptimum_26_NCC.PRM
  Tot(26)        6        6     2006    220.5    483.0   1237.4   381.90      0.0    215.5      5.0      0.0      0.0    107.4       46    249.8    193.9      100     0.000     0.000     0.000     0.000      107        0       42       25       11        7        0    15.455       73     40.2    6.214   -9.900     1.74    0.000    0.000       26        9     2006  Maize_Short_Soroca_6June_NonOptimum_26_NCC.PRM
  Tot(27)        6        6     2007    185.3    532.1   1314.3   383.77      0.0    181.4      3.9      0.0      0.0    105.3       34    226.3    180.0      100     0.000     0.000     0.000     0.000      107        0       42       25       13       17        0    13.562       68     40.3    5.469   -9.900     1.65    0.000    0.000       26        9     2007  Maize_Short_Soroca_6June_NonOptimum_26_NCC.PRM
  Tot(28)        6        6     2008    400.0    488.6   1252.2   385.59      0.0    330.7     69.3     52.0      0.0    121.0       50    256.1    199.7      100     0.000     0.000     0.000     0.000      107        0       42       25       15        3        0    14.463       74     40.1    5.794   -9.900     1.54    0.000    0.000       26        9     2008  Maize_Short_Soroca_6June_NonOptimum_26_NCC.PRM
  Tot(29)        6        6     2009    155.7    534.4   1353.0   387.37      0.0    154.7      1.0      0.0      0.0    147.7       53    224.3    176.7       86     0.000     0.000     0.000     0.000      107        0       42       25        8       15       15    12.455       56     40.0    4.984   -9.900     1.34    0.000    0.000       26        9     2009  Maize_Short_Soroca_6June_NonOptimum_26_NCC.PRM
  Tot(30)        6        6     2010    312.2    466.6   1338.8   389.85      0.0    287.9     24.3     41.7      0.0    138.3       65    249.8    192.8       99     0.000     0.000     0.000     0.000      107        0       42       25       13        6        1    15.023       74     40.4    6.068   -9.900     1.56    0.000    0.000       26        9     2010  Maize_Short_Soroca_6June_NonOptimum_26_NCC.PRM
  Tot(31)        6        6     2011    175.5    501.1   1309.7   391.63      0.0    172.0      3.5      3.5      0.0    141.3       61    244.8    192.0       89     0.000     0.000     0.000     0.000      107        0       42       25        8        5       12    14.120       62     39.9    5.628   -9.900     1.46    0.000    0.000       26        9     2011  Maize_Short_Soroca_6June_NonOptimum_26_NCC.PRM
  Tot(32)        6        6     2012    107.4    583.0   1401.8   393.82      0.0    105.8      1.6      3.9      0.0    104.2       29    211.3    169.0       87     0.000     0.000     0.000     0.000      107        0       42       25        7       30       13    11.070       50     40.4    4.475   -9.900     1.42    0.000    0.000       26        9     2012  Maize_Short_Soroca_6June_NonOptimum_26_NCC.PRM
  Tot(33)        6        6     2013    249.3    473.0   1269.4   396.48      0.0    231.5     17.8      0.0      0.0    130.3       53    203.7    160.1       91     0.000     0.000     0.000     0.000      107        0       42       25       13       20        4    12.786       63     40.8    5.219   -9.900     1.56    0.000    0.000       26        9     2013  Maize_Short_Soroca_6June_NonOptimum_26_NCC.PRM
  Tot(34)        6        6     2014    237.1    504.5   1302.8   398.55      0.0    217.1     20.0     22.3      0.0    105.9       46    262.6    204.1       95     0.000     0.000     0.000     0.000      107        0       42       25       11        6        5    14.973       69     40.2    6.012   -9.900     1.63    0.000    0.000       26        9     2014  Maize_Short_Soroca_6June_NonOptimum_26_NCC.PRM
  Tot(35)        6        6     2015     75.3    590.7   1405.3   401.00      0.0     75.3      0.0      0.0      0.0     96.2       25    171.2    137.6       80     0.000     0.000     0.000     0.000      102        0       42       25        7       30       17     8.359       37     39.5    3.300   -9.900     1.26    0.000    0.000       26        9     2015  Maize_Short_Soroca_6June_NonOptimum_26_NCC.PRM
  Tot(36)        6        6     2016    196.8    529.3   1373.3   403.00      0.0    193.9      2.9      1.7      0.0    155.3       59    244.0    191.8       89     0.000     0.000     0.000     0.000      107        0       42       25        9       17       12    13.380       61     40.2    5.385   -9.900     1.35    0.000    0.000       26        9     2016  Maize_Short_Soroca_6June_NonOptimum_26_NCC.PRM
  Tot(37)        6        6     2017    229.7    532.7   1347.1   405.00      0.0    222.5      7.2      1.9      0.0    148.0       56    239.4    187.2       88     0.000     0.000     0.000     0.000      107        0       42       25        8       13        9    13.430       60     40.2    5.401   -9.900     1.39    0.000    0.000       26        9     2017  Maize_Short_Soroca_6June_NonOptimum_26_NCC.PRM
  Tot(38)        6        6     2018    252.3    476.6   1408.2   408.00      0.0    239.0     13.3     15.2      0.0    141.3       69    276.7    214.8       98     0.000     0.000     0.000     0.000      107        0       42       25        7        1        2    16.794       73     40.0    6.724   -9.900     1.61    0.000    0.000       26        9     2018  Maize_Short_Soroca_6June_NonOptimum_26_NCC.PRM
  Tot(39)        6        6     2019    166.3    540.1   1376.3   410.00      0.0    163.1      3.2      4.4      0.0    138.9       51    217.0    169.8       81     0.000     0.000     0.000     0.000      107        0       42       25        9       13       17    12.019       55     39.7    4.777   -9.900     1.34    0.000    0.000       26        9     2019  Maize_Short_Soroca_6June_NonOptimum_26_NCC.PRM
  Tot(40)        6        6     2020    204.8    436.5   1111.0   412.00      0.0    201.1      3.7      2.5      0.0    135.6       69    227.3    176.6      100     0.000     0.000     0.000     0.000      107        0       42       25       16        3        0    15.359       75     40.1    6.162   -9.900     1.70    0.000    0.000       26        9     2020  Maize_Short_Soroca_6June_NonOptimum_26_NCC.PRM
  Tot(41)        6        6     2021    171.0    483.2   1045.9   414.00      0.0    132.3     38.7     19.6      0.0    116.3       48    184.0    145.0       82     0.000     0.000     0.000     0.000      104        0       42       25       23       21       17     9.675       50     40.4    3.907   -9.900     1.32    0.000    0.000       26        9     2021  Maize_Short_Soroca_6June_NonOptimum_26_NCC.PRM
  Tot(42)        6        6     2022    126.0    592.4   1397.5   417.00      0.0    124.3      1.7      0.2      0.0    133.0       38    201.2    161.3       81     0.000     0.000     0.000     0.000      107        0       42       25        8       30       18    10.102       46     40.4    4.084   -9.900     1.22    0.000    0.000       26        9     2022  Maize_Short_Soroca_6June_NonOptimum_26_NCC.PRM
  Tot(43)        6        6     2023    172.9    501.2   1163.4   419.00      0.0    171.3      1.6      0.0      0.0    122.7       51    227.9    177.8       96     0.000     0.000     0.000     0.000      107        0       42       25       17        9        3    13.304       69     40.2    5.350   -9.900     1.53    0.000    0.000       26        9     2023  Maize_Short_Soroca_6June_NonOptimum_26_NCC.PRM
  Tot(44)        6        6     2024     83.0    512.2   1109.4   421.00      0.0     80.7      2.3      4.0      0.0     89.7       32    179.0    142.3       81     0.000     0.000     0.000     0.000       99        0       42       25       18       24       18     9.465       47     36.4    3.442   -9.900     1.30    0.000    0.000       26        9     2024  Maize_Short_Soroca_6June_NonOptimum_26_NCC.PRM
  Tot(45)        6        6     2025    164.7    487.6   1190.8   423.00      0.0    162.7      2.0      4.3      0.0    109.6       50    228.7    179.1       86     0.000     0.000     0.000     0.000      107        0       42       25       16       15       10    13.044       60     40.5    5.278   -9.900     1.56    0.000    0.000       26        9     2025  Maize_Short_Soroca_6June_NonOptimum_26_NCC.PRM
  Tot(46)        6        6     2026    144.7    505.6   1110.9   424.00      0.0    142.0      2.7      1.7      0.0    122.9       49    204.0    160.5       86     0.000     0.000     0.000     0.000      107        0       42       25       22       20        8    11.032       60     40.7    4.491   -9.900     1.37    0.000    0.000       26        9     2026  Maize_Short_Soroca_6June_NonOptimum_26_NCC.PRM
  Tot(47)        6        6     2027    172.9    537.0   1291.3   426.00      0.0    172.8      0.1      0.0      0.0    144.2       54    230.5    181.5       86     0.000     0.000     0.000     0.000      107        0       42       25       13       15       12    12.149       58     40.4    4.909   -9.900     1.31    0.000    0.000       26        9     2027  Maize_Short_Soroca_6June_NonOptimum_26_NCC.PRM
  Tot(48)        6        6     2028    229.8    531.4   1330.5   428.00      0.0    226.3      3.5      0.1      0.0    123.9       46    260.9    203.2       96     0.000     0.000     0.000     0.000      107        0       42       25        8       11        3    15.112       68     40.3    6.087   -9.900     1.58    0.000    0.000       26        9     2028  Maize_Short_Soroca_6June_NonOptimum_26_NCC.PRM
  Tot(49)        6        6     2029    306.2    397.5    962.7   429.00      0.0    261.3     44.9     41.9      0.0    117.9       71    211.1    164.3      100     0.000     0.000     0.000     0.000      107        0       42       25       25        3        0    13.988       75     40.2    5.622   -9.900     1.71    0.000    0.000       26        9     2029  Maize_Short_Soroca_6June_NonOptimum_26_NCC.PRM
  Tot(50)        6        6     2030    183.4    544.8   1232.4   431.00      0.0    175.4      8.0      0.0      0.0    117.8       44    246.3    192.2       92     0.000     0.000     0.000     0.000      107        0       42       25       18        8        5    12.835       66     40.2    5.166   -9.900     1.42    0.000    0.000       26        9     2030  Maize_Short_Soroca_6June_NonOptimum_26_NCC.PRM
  Tot(51)        6        6     2031     92.3    604.0   1418.8   432.00      0.0     92.1      0.2      0.0      0.0    115.9       32    180.9    145.0       77     0.000     0.000     0.000     0.000       94        0       42       25        3       27       19     8.544       36     31.1    2.653   -9.900     0.92    0.000    0.000       26        9     2031  Maize_Short_Soroca_6June_NonOptimum_26_NCC.PRM
  Tot(52)        6        6     2032    115.8    513.6   1278.4   433.00      0.0    115.6      0.2      0.0      0.0    132.3       52    198.3    155.7       81     0.000     0.000     0.000     0.000      103        0       42       25       10       15       18    10.938       48     39.8    4.357   -9.900     1.32    0.000    0.000       26        9     2032  Maize_Short_Soroca_6June_NonOptimum_26_NCC.PRM
  Tot(53)        6        6     2033    127.5    513.4   1213.3   435.00      0.0    122.8      4.7     10.1      0.0    101.8       42    216.1    169.3       85     0.000     0.000     0.000     0.000      107        0       42       25       14       20       12    12.074       58     40.7    4.916   -9.900     1.55    0.000    0.000       26        9     2033  Maize_Short_Soroca_6June_NonOptimum_26_NCC.PRM
  Tot(54)        6        6     2034    220.4    472.4   1036.8   436.00      0.0    191.6     28.8     40.4      0.0    117.5       57    223.6    175.5       96     0.000     0.000     0.000     0.000      107        0       42       25       26       17        3    12.821       71     40.9    5.240   -9.900     1.54    0.000    0.000       26        9     2034  Maize_Short_Soroca_6June_NonOptimum_26_NCC.PRM
  Tot(55)        6        6     2035    155.4    509.1   1156.0   437.00      0.0    150.5      4.9     10.6      0.0    108.3       46    232.5    181.5       91     0.000     0.000     0.000     0.000      107        0       42       25       17       10        7    12.887       63     40.4    5.204   -9.900     1.53    0.000    0.000       26        9     2035  Maize_Short_Soroca_6June_NonOptimum_26_NCC.PRM
  Tot(56)        6        6     2036    170.6    441.6   1009.1   438.00      0.0    162.3      8.3      7.6      0.0    118.4       59    218.9    170.6      100     0.000     0.000     0.000     0.000      107        0       42       25       24        9        0    13.935       74     40.5    5.643   -9.900     1.67    0.000    0.000       26        9     2036  Maize_Short_Soroca_6June_NonOptimum_26_NCC.PRM
  Tot(57)        6        6     2037    146.6    478.0   1187.0   438.00      0.0    140.2      6.4      0.0      0.0    101.0       43    200.0    156.7       84     0.000     0.000     0.000     0.000      107        0       42       25       16       15       10    11.789       59     40.4    4.762   -9.900     1.58    0.000    0.000       26        9     2037  Maize_Short_Soroca_6June_NonOptimum_26_NCC.PRM
  Tot(58)        6        6     2038    195.0    539.9   1278.7   439.00      0.0    187.7      7.3      0.0      0.0    158.8       52    191.0    151.6       83     0.000     0.000     0.000     0.000      107        0       42       25       16       24       13    10.012       51     40.6    4.060   -9.900     1.16    0.000    0.000       26        9     2038  Maize_Short_Soroca_6June_NonOptimum_26_NCC.PRM
  Tot(59)        6        6     2039    148.1    445.5   1053.4   440.00      0.0    146.7      1.4      0.0      0.0     95.4       43    197.2    154.3      100     0.000     0.000     0.000     0.000      107        0       42       25       24       11        0    12.888       71     40.5    5.217   -9.900     1.78    0.000    0.000       26        9     2039  Maize_Short_Soroca_6June_NonOptimum_26_NCC.PRM
  Tot(60)        6        6     2040     75.1    630.3   1431.6   440.00      0.0     75.0      0.1      0.0      0.0    105.9       28    170.2    136.6       74     0.000     0.000     0.000     0.000       89        0       42       25        5       30       19     7.379       31     25.9    1.914   -9.900     0.70    0.000    0.000       26        9     2040  Maize_Short_Soroca_6June_NonOptimum_26_NCC.PRM
  Tot(61)        6        6     2041    277.6    388.8   1005.2   441.00      0.0    268.9      8.7     11.3      0.0    133.1       73    182.2    141.3      100     0.000     0.000     0.000     0.000      107        0       42       25       23        2        0    14.050       75     40.1    5.630   -9.900     1.79    0.000    0.000       26        9     2041  Maize_Short_Soroca_6June_NonOptimum_26_NCC.PRM
  Tot(62)        6        6     2042     86.3    549.1   1248.5   441.00      0.0     85.5      0.8      4.3      0.0     95.5       30    177.3    142.7       79     0.000     0.000     0.000     0.000      107        0       42       25       13       30       15     8.718       42     40.5    3.533   -9.900     1.30    0.000    0.000       26        9     2042  Maize_Short_Soroca_6June_NonOptimum_26_NCC.PRM
  Tot(63)        6        6     2043    136.5    470.7   1113.9   441.00      0.0    134.7      1.8      2.8      0.0     95.5       45    226.6    174.9       91     0.000     0.000     0.000     0.000      107        0       42       25       15        8        6    14.136       66     40.1    5.669   -9.900     1.76    0.000    0.000       26        9     2043  Maize_Short_Soroca_6June_NonOptimum_26_NCC.PRM
  Tot(64)        6        6     2044     92.5    532.6   1172.1   442.00      0.0     92.4      0.1      0.0      0.0    103.7       37    196.3    157.9       83     0.000     0.000     0.000     0.000      107        0       42       25       18       25       17    10.308       51     40.4    4.163   -9.900     1.39    0.000    0.000       26        9     2044  Maize_Short_Soroca_6June_NonOptimum_26_NCC.PRM
  Tot(65)        6        6     2045     82.0    515.4   1172.4   442.00      0.0     80.8      1.2      1.0      0.0    108.7       39    180.6    143.1       82     0.000     0.000     0.000     0.000      104        0       42       25       15       22       17    10.156       50     40.3    4.098   -9.900     1.42    0.000    0.000       26        9     2045  Maize_Short_Soroca_6June_NonOptimum_26_NCC.PRM
  Tot(66)        6        6     2046    104.7    582.9   1342.7   442.00      0.0    101.9      2.8      3.2      0.0    107.1       30    171.5    137.6       76     0.000     0.000     0.000     0.000       91        0       42       25        4       30       19     7.782       35     28.0    2.181   -9.900     0.84    0.000    0.000       26        9     2046  Maize_Short_Soroca_6June_NonOptimum_26_NCC.PRM
  Tot(67)        6        6     2047    167.0    418.6   1068.1   442.00      0.0    164.3      2.7      1.7      0.0    140.7       73    198.7    153.7      100     0.000     0.000     0.000     0.000      107        0       42       25       20        5        0    14.318       75     40.2    5.760   -9.900     1.70    0.000    0.000       26        9     2047  Maize_Short_Soroca_6June_NonOptimum_26_NCC.PRM
  Tot(68)        6        6     2048    168.4    471.7   1177.8   442.00      0.0    165.0      3.4      0.0      0.0    118.0       46    212.3    167.7       98     0.000     0.000     0.000     0.000      107        0       42       25       15       23        1    13.831       69     40.8    5.643   -9.900     1.71    0.000    0.000       26        9     2048  Maize_Short_Soroca_6June_NonOptimum_26_NCC.PRM
  Tot(69)        6        6     2049    116.9    503.1   1209.8   443.00      0.0    115.7      1.2      0.0      0.0     90.7       33    213.0    168.4       96     0.000     0.000     0.000     0.000      107        0       42       25       14       20        3    13.473       64     40.6    5.471   -9.900     1.80    0.000    0.000       26        9     2049  Maize_Short_Soroca_6June_NonOptimum_26_NCC.PRM
  Tot(70)        6        6     2050     73.0    541.9   1284.8   443.00      0.0     73.0      0.0      0.0      0.0     98.8       31    172.9    138.2       80     0.000     0.000     0.000     0.000      104        0       42       25       13       29       16     8.927       43     40.5    3.618   -9.900     1.33    0.000    0.000       26        9     2050  Maize_Short_Soroca_6June_NonOptimum_26_NCC.PRM
  Tot(71)        6        6     2051    151.6    504.4   1199.0   443.00      0.0    151.1      0.5      0.0      0.0    129.2       48    198.2    156.9       87     0.000     0.000     0.000     0.000      107        0       42       25       17       26        9    11.306       57     40.8    4.612   -9.900     1.41    0.000    0.000       26        9     2051  Maize_Short_Soroca_6June_NonOptimum_26_NCC.PRM
  Tot(72)        6        6     2052    288.5    419.6   1049.5   443.00      0.0    256.0     32.5     24.8      0.0    124.0       62    187.7    146.0      100     0.000     0.000     0.000     0.000      107        0       42       25       26        2        0    13.546       75     40.0    5.418   -9.900     1.74    0.000    0.000       26        9     2052  Maize_Short_Soroca_6June_NonOptimum_26_NCC.PRM
  Tot(73)        6        6     2053    194.1    468.8   1169.6   443.00      0.0    186.3      7.8     11.5      0.0    134.8       62    210.4    165.3       91     0.000     0.000     0.000     0.000      107        0       42       25       16       16        5    12.755       64     40.6    5.173   -9.900     1.50    0.000    0.000       26        9     2053  Maize_Short_Soroca_6June_NonOptimum_26_NCC.PRM
  Tot(74)        6        6     2054     68.1    576.9   1195.4   443.00      0.0     67.7      0.4      0.0      0.0     91.3       24    167.8    135.9       82     0.000     0.000     0.000     0.000      107        0       42       25       16       33       14     8.418       42     40.6    3.417   -9.900     1.32    0.000    0.000       26        9     2054  Maize_Short_Soroca_6June_NonOptimum_26_NCC.PRM
  Tot(75)        6        6     2055    115.3    519.2   1204.5   443.00      0.0    114.0      1.3      1.4      0.0    119.5       44    193.1    153.8       83     0.000     0.000     0.000     0.000      107        0       42       25       15       28       14    10.501       50     40.7    4.271   -9.900     1.37    0.000    0.000       26        9     2055  Maize_Short_Soroca_6June_NonOptimum_26_NCC.PRM
  Tot(76)        6        6     2056    232.7    489.8   1196.0   442.00      0.0    227.2      5.5      0.5      0.0    154.1       68    237.0    185.1       93     0.000     0.000     0.000     0.000      107        0       42       25       17       13        3    14.086       69     40.7    5.737   -9.900     1.47    0.000    0.000       26        9     2056  Maize_Short_Soroca_6June_NonOptimum_26_NCC.PRM
  Tot(77)        6        6     2057    267.4    479.8   1290.7   442.00      0.0    258.6      8.8     17.5      0.0    175.4       78    249.7    194.0       99     0.000     0.000     0.000     0.000      107        0       42       25        9        4        1    16.290       74     40.2    6.549   -9.900     1.54    0.000    0.000       26        9     2057  Maize_Short_Soroca_6June_NonOptimum_26_NCC.PRM
  Tot(78)        6        6     2058    153.2    524.9   1318.1   442.00      0.0    153.2      0.0      0.0      0.0    113.5       39    234.6    183.6       99     0.000     0.000     0.000     0.000      107        0       42       25       11       13        2    14.774       68     40.3    5.957   -9.900     1.71    0.000    0.000       26        9     2058  Maize_Short_Soroca_6June_NonOptimum_26_NCC.PRM
  Tot(79)        6        6     2059    155.7    503.0   1175.2   442.00      0.0    153.0      2.7      2.4      0.0    130.7       54    223.7    175.5       92     0.000     0.000     0.000     0.000      107        0       42       25       15       16        6    13.562       65     40.5    5.489   -9.900     1.55    0.000    0.000       26        9     2059  Maize_Short_Soroca_6June_NonOptimum_26_NCC.PRM
  Tot(80)        6        6     2060     91.6    507.2   1216.9   442.00      0.0     91.6      0.0      0.0      0.0     92.9       37    207.7    164.3       87     0.000     0.000     0.000     0.000      107        0       42       25       16       19       14    11.718       57     40.5    4.750   -9.900     1.58    0.000    0.000       26        9     2060  Maize_Short_Soroca_6June_NonOptimum_26_NCC.PRM
  Tot(81)        6        6     2061    103.2    564.1   1258.7   441.00      0.0    103.2      0.0      0.0      0.0     98.8       31    202.4    160.7       81     0.000     0.000     0.000     0.000      107        0       42       25       11       25       13    10.649       49     40.4    4.299   -9.900     1.43    0.000    0.000       26        9     2061  Maize_Short_Soroca_6June_NonOptimum_26_NCC.PRM
  Tot(82)        6        6     2062    132.9    525.0   1182.6   441.00      0.0    132.5      0.4      0.8      0.0    108.7       39    224.7    177.7       91     0.000     0.000     0.000     0.000      107        0       42       25       12       17        7    13.483       62     40.3    5.433   -9.900     1.63    0.000    0.000       26        9     2062  Maize_Short_Soroca_6June_NonOptimum_26_NCC.PRM
  Tot(83)        6        6     2063     57.5    634.9   1371.9   441.00      0.0     57.5      0.0      0.0      0.0     90.4       22    163.5    132.6       76     0.000     0.000     0.000     0.000       89        0       42       25        6       34       19     6.814       29     26.0    1.775   -9.900     0.72    0.000    0.000       26        9     2063  Maize_Short_Soroca_6June_NonOptimum_26_NCC.PRM
  Tot(84)        6        6     2064    142.7    509.9   1182.3   440.00      0.0    141.7      1.0      0.0      0.0    116.3       48    225.5    176.0       91     0.000     0.000     0.000     0.000      107        0       42       25       21       10       10    12.176       64     40.3    4.906   -9.900     1.44    0.000    0.000       26        9     2064  Maize_Short_Soroca_6June_NonOptimum_26_NCC.PRM
  Tot(85)        6        6     2065     96.8    544.0   1234.2   440.00      0.0     96.2      0.6      0.1      0.0    113.2       41    192.6    151.4       76     0.000     0.000     0.000     0.000       99        0       42       25        8       16       20    10.093       45     35.7    3.601   -9.900     1.19    0.000    0.000       26        9     2065  Maize_Short_Soroca_6June_NonOptimum_26_NCC.PRM
  Tot(86)        6        6     2066     68.5    612.3   1278.4   440.00      0.0     68.5      0.0      0.0      0.0     97.2       24    172.5    139.2       80     0.000     0.000     0.000     0.000       96        0       42       25       11       34       17     7.699       36     33.4    2.570   -9.900     0.96    0.000    0.000       26        9     2066  Maize_Short_Soroca_6June_NonOptimum_26_NCC.PRM
  Tot(87)        6        6     2067    121.3    495.5   1170.3   439.00      0.0    119.3      2.0      0.7      0.0    108.7       39    186.7    148.2       91     0.000     0.000     0.000     0.000      107        0       42       25       21       25        4    11.234       61     40.9    4.591   -9.900     1.55    0.000    0.000       26        9     2067  Maize_Short_Soroca_6June_NonOptimum_26_NCC.PRM
  Tot(88)        6        6     2068    258.3    495.2   1319.1   439.00      0.0    248.9      9.4     19.9      0.0    149.1       65    268.8    210.1       98     0.000     0.000     0.000     0.000      107        0       42       25        7        9        2    16.344       71     40.1    6.551   -9.900     1.57    0.000    0.000       26        9     2068  Maize_Short_Soroca_6June_NonOptimum_26_NCC.PRM
  Tot(89)        6        6     2069    118.7    559.9   1300.7   438.00      0.0    117.5      1.2      1.5      0.0    103.8       35    205.0    162.2       82     0.000     0.000     0.000     0.000      107        0       42       25       15       19       11    10.403       52     40.5    4.214   -9.900     1.36    0.000    0.000       26        9     2069  Maize_Short_Soroca_6June_NonOptimum_26_NCC.PRM
  Tot(90)        6        6     2070    147.3    531.7   1246.5   437.00      0.0    141.3      6.0      6.2      0.0    122.5       44    207.0    163.0       85     0.000     0.000     0.000     0.000      107        0       42       25       14       20       14    11.598       56     40.4    4.685   -9.900     1.42    0.000    0.000       26        9     2070  Maize_Short_Soroca_6June_NonOptimum_26_NCC.PRM
  Tot(91)        6        6     2071    143.9    502.7   1203.4   437.00      0.0    143.2      0.7      0.0      0.0    124.7       46    199.4    157.5       88     0.000     0.000     0.000     0.000      107        0       42       25       15       22        8    11.970       59     40.7    4.870   -9.900     1.50    0.000    0.000       26        9     2071  Maize_Short_Soroca_6June_NonOptimum_26_NCC.PRM
  Tot(92)        6        6     2072    217.1    439.0   1149.0   436.00      0.0    208.0      9.1     14.6      0.0    141.4       77    231.1    178.3       99     0.000     0.000     0.000     0.000      107        0       42       25       15        3        0    15.214       75     40.1    6.107   -9.900     1.64    0.000    0.000       26        9     2072  Maize_Short_Soroca_6June_NonOptimum_26_NCC.PRM
  Tot(93)        6        6     2073    142.3    562.5   1316.1   436.00      0.0    133.9      8.4     12.5      0.0    122.2       36    177.2    143.3       80     0.000     0.000     0.000     0.000      107        0       42       25        9       31       15     8.709       38     40.4    3.520   -9.900     1.18    0.000    0.000       26        9     2073  Maize_Short_Soroca_6June_NonOptimum_26_NCC.PRM
  Tot(94)        6        6     2074    219.2    391.5   1024.6   435.00      0.0    216.8      2.4      5.1      0.0    123.3       69    183.5    142.4      100     0.000     0.000     0.000     0.000      107        0       42       25       25        2        0    13.409       75     40.1    5.379   -9.900     1.75    0.000    0.000       26        9     2074  Maize_Short_Soroca_6June_NonOptimum_26_NCC.PRM
  Tot(95)        6        6     2075    279.1    493.3   1181.6   435.00      0.0    249.4     29.7      0.0      0.0    125.7       49    221.2    173.6       95     0.000     0.000     0.000     0.000      107        0       42       25       16       17        4    13.158       66     40.5    5.327   -9.900     1.54    0.000    0.000       26        9     2075  Maize_Short_Soroca_6June_NonOptimum_26_NCC.PRM
  Tot(96)        6        6     2076    234.4    512.1   1219.3   434.00      0.0    228.7      5.7      0.0      0.0    168.9       63    209.4    165.6       91     0.000     0.000     0.000     0.000      107        0       42       25       20       22        4    11.874       64     40.9    4.851   -9.900     1.28    0.000    0.000       26        9     2076  Maize_Short_Soroca_6June_NonOptimum_26_NCC.PRM
  Tot(97)        6        6     2077    252.9    424.2   1087.9   433.00      0.0    246.9      6.0      6.9      0.0    130.5       66    195.4    152.3      100     0.000     0.000     0.000     0.000      107        0       42       25       20        1        0    13.849       75     40.0    5.540   -9.900     1.70    0.000    0.000       26        9     2077  Maize_Short_Soroca_6June_NonOptimum_26_NCC.PRM
  Tot(98)        6        6     2078    139.7    556.5   1271.1   433.00      0.0    138.3      1.4      0.0      0.0    117.4       39    194.7    153.9       78     0.000     0.000     0.000     0.000      107        0       42       25       14       21       11    10.171       51     40.3    4.099   -9.900     1.31    0.000    0.000       26        9     2078  Maize_Short_Soroca_6June_NonOptimum_26_NCC.PRM
  Tot(99)        6        6     2079     85.8    585.6   1274.8   432.00      0.0     85.8      0.0      0.0      0.0    106.0       28    178.3    144.4       84     0.000     0.000     0.000     0.000      107        0       42       25        9       33       15     9.137       41     40.6    3.708   -9.900     1.30    0.000    0.000       26        9     2079  Maize_Short_Soroca_6June_NonOptimum_26_NCC.PRM
 Tot(100)        6        6     2080    118.4    538.1   1275.6   432.00      0.0    115.5      2.9      2.7      0.0    130.0       43    189.8    151.6       82     0.000     0.000     0.000     0.000      107        0       42       25       11       30       16    10.125       47     40.6    4.110   -9.900     1.29    0.000    0.000       26        9     2080  Maize_Short_Soroca_6June_NonOptimum_26_NCC.PRM
 Tot(101)        6        6     2081    215.1    510.6   1232.2   431.00      0.0    170.4     44.7     32.1      0.0    145.9       58    206.2    162.5       85     0.000     0.000     0.000     0.000      107        0       42       25       11       18       17    11.686       55     40.2    4.695   -9.900     1.33    0.000    0.000       26        9     2081  Maize_Short_Soroca_6June_NonOptimum_26_NCC.PRM
 Tot(102)        6        6     2082    176.8    453.1   1171.4   431.00      0.0    175.0      1.8      0.0      0.0    111.5       52    228.8    177.7      100     0.000     0.000     0.000     0.000      107        0       42       25       12        5        0    15.628       74     40.1    6.273   -9.900     1.84    0.000    0.000       26        9     2082  Maize_Short_Soroca_6June_NonOptimum_26_NCC.PRM
 Tot(103)        6        6     2083    167.0    524.6   1258.4   430.00      0.0    165.7      1.3      0.5      0.0    143.7       58    232.5    182.0       88     0.000     0.000     0.000     0.000      107        0       42       25       12       16       13    12.738       61     40.4    5.149   -9.900     1.37    0.000    0.000       26        9     2083  Maize_Short_Soroca_6June_NonOptimum_26_NCC.PRM
 Tot(104)        6        6     2084    145.6    561.4   1419.2   429.00      0.0    142.5      3.1      0.0      0.0    114.7       35    237.8    189.7       93     0.000     0.000     0.000     0.000      107        0       42       25        5       22        7    13.673       59     40.2    5.496   -9.900     1.56    0.000    0.000       26        9     2084  Maize_Short_Soroca_6June_NonOptimum_26_NCC.PRM
 Tot(105)        6        6     2085    146.8    484.1   1102.9   429.00      0.0    145.4      1.4      0.0      0.0     95.6       40    212.7    166.4       98     0.000     0.000     0.000     0.000      107        0       42       25       21       14        1    12.779       70     40.6    5.185   -9.900     1.68    0.000    0.000       26        9     2085  Maize_Short_Soroca_6June_NonOptimum_26_NCC.PRM
 Tot(106)        6        6     2086    102.1    607.5   1394.7   428.00      0.0    101.9      0.2      0.0      0.0    119.9       30    170.8    139.4       81     0.000     0.000     0.000     0.000      107        0       42       25       10       36       13     7.840       36     40.7    3.188   -9.900     1.10    0.000    0.000       26        9     2086  Maize_Short_Soroca_6June_NonOptimum_26_NCC.PRM
 Tot(107)        6        6     2087    158.5    474.8   1088.8   428.00      0.0    150.8      7.7      9.5      0.0    122.5       54    211.4    164.7       89     0.000     0.000     0.000     0.000      107        0       42       25       20       22        6    12.135       61     40.7    4.943   -9.900     1.48    0.000    0.000       26        9     2087  Maize_Short_Soroca_6June_NonOptimum_26_NCC.PRM
 Tot(108)        6        6     2088    255.0    438.8   1102.2   427.00      0.0    239.2     15.8     33.5      0.0    146.7       71    212.2    166.7      100     0.000     0.000     0.000     0.000      107        0       42       25       20       10        0    14.270       74     40.4    5.770   -9.900     1.61    0.000    0.000       26        9     2088  Maize_Short_Soroca_6June_NonOptimum_26_NCC.PRM
 Tot(109)        6        6     2089    194.3    504.9   1196.6   427.00      0.0    174.6     19.7      0.9      0.0    121.1       45    193.6    154.5       83     0.000     0.000     0.000     0.000      107        0       42       25       14       25       11    10.898       52     40.6    4.425   -9.900     1.41    0.000    0.000       26        9     2089  Maize_Short_Soroca_6June_NonOptimum_26_NCC.PRM
 Tot(110)        6        6     2090    110.4    459.9   1074.5   426.00      0.0    110.0      0.4      0.0      0.0     99.1       42    196.0    153.8       99     0.000     0.000     0.000     0.000      107        0       42       25       21       12        2    12.884       70     40.4    5.208   -9.900     1.76    0.000    0.000       26        9     2090  Maize_Short_Soroca_6June_NonOptimum_26_NCC.PRM
 Tot(111)        6        6     2091    211.4    471.3   1116.4   425.00      0.0    196.5     14.9      2.2      0.0    116.7       48    216.0    170.2      100     0.000     0.000     0.000     0.000      107        0       42       25       20       16        0    13.709       70     40.5    5.557   -9.900     1.67    0.000    0.000       26        9     2091  Maize_Short_Soroca_6June_NonOptimum_26_NCC.PRM
 Tot(112)        6        6     2092    165.9    455.2   1150.4   425.00      0.0    165.9      0.0      0.0      0.0    113.1       49    221.9    173.2       99     0.000     0.000     0.000     0.000      107        0       42       25       13       13        0    14.811       71     40.6    6.012   -9.900     1.79    0.000    0.000       26        9     2092  Maize_Short_Soroca_6June_NonOptimum_26_NCC.PRM
 Tot(113)        6        6     2093    234.6    454.2   1109.4   424.00      0.0    226.4      8.2     16.7      0.0    139.8       63    221.9    173.0      100     0.000     0.000     0.000     0.000      107        0       42       25       18        5        0    14.685       74     40.3    5.917   -9.900     1.64    0.000    0.000       26        9     2093  Maize_Short_Soroca_6June_NonOptimum_26_NCC.PRM
 Tot(114)        6        6     2094    189.2    601.8   1377.8   424.00      0.0    177.7     11.5      0.0      0.0    102.0       23    186.2    152.2      100     0.000     0.000     0.000     0.000      107        0       42       25       11       29        0    10.684       51     40.1    4.285   -9.900     1.49    0.000    0.000       26        9     2094  Maize_Short_Soroca_6June_NonOptimum_26_NCC.PRM
 Tot(115)        6        6     2095    182.8    504.8   1161.2   423.00      0.0    161.9     20.9     35.4      0.0     77.9       30    234.1    181.8       99     0.000     0.000     0.000     0.000      107        0       42       25       18        6        1    13.944       72     40.1    5.590   -9.900     1.79    0.000    0.000       26        9     2095  Maize_Short_Soroca_6June_NonOptimum_26_NCC.PRM
 Tot(116)        6        6     2096    211.4    397.5   1008.1   423.00      0.0    200.7     10.7     21.9      0.0    119.2       70    200.7    156.8      100     0.000     0.000     0.000     0.000      107        0       42       25       29        6        0    13.690       75     40.4    5.524   -9.900     1.73    0.000    0.000       26        9     2096  Maize_Short_Soroca_6June_NonOptimum_26_NCC.PRM
 Tot(117)        6        6     2097    137.3    509.7   1261.6   422.00      0.0    137.3      0.0      0.0      0.0    144.1       54    208.6    163.9       86     0.000     0.000     0.000     0.000      107        0       42       25       13       17       14    12.510       57     40.4    5.051   -9.900     1.43    0.000    0.000       26        9     2097  Maize_Short_Soroca_6June_NonOptimum_26_NCC.PRM
 Tot(118)        6        6     2098    175.3    480.6   1106.5   422.00      0.0    171.2      4.1      8.2      0.0    123.2       55    214.2    168.1       89     0.000     0.000     0.000     0.000      107        0       42       25       21       14        6    12.232       64     40.6    4.962   -9.900     1.47    0.000    0.000       26        9     2098  Maize_Short_Soroca_6June_NonOptimum_26_NCC.PRM
 Tot(119)        6        6     2099    202.7    476.2   1260.3   421.00      0.0    201.4      1.3      0.0      0.0    133.7       59    243.4    189.9       98     0.000     0.000     0.000     0.000      107        0       42       25       12       10        2    15.381       72     40.5    6.222   -9.900     1.65    0.000    0.000       26        9     2099  Maize_Short_Soroca_6June_NonOptimum_26_NCC.PRM
