AquaCrop 7.0 (August 2022) - Output created on (date) : 23-11-2022   at (time) : 14:29:57

    RunNr     Day1   Month1    Year1     Rain      ETo       GD     CO2      Irri   Infilt   Runoff    Drain   Upflow        E     E/Ex       Tr      TrW   Tr/Trx    SaltIn   SaltOut    SaltUp  SaltProf     Cycle   SaltStr  FertStr  WeedStr  TempStr   ExpStr   StoStr  BioMass  Brelative   HI    Y(dry)  Y(fresh)    WPet      Bin     Bout     DayN   MonthN    YearN
                                           mm       mm  degC.day    ppm        mm       mm       mm       mm       mm       mm        %       mm       mm        %    ton/ha    ton/ha    ton/ha    ton/ha      days       %        %        %        %        %        %    ton/ha        %       %    ton/ha   ton/ha    kg/m3   ton/ha   ton/ha
   Tot(1)       22        5     1981    240.8    460.2   1219.9   340.11      0.0    210.3     30.5     45.0      0.0    104.1       48    244.4    242.8      100     0.000     0.000     0.000     0.000      107        0        0        0       13        3        0    19.498       95     40.1    7.815   -9.900     2.24    0.000    0.000       11        9     1981  Maize_Short_Soroca_22May_Optimum_26_MOHC.PRM
   Tot(2)       22        5     1982    274.6    445.7   1204.3   341.22      0.0    238.9     35.7     42.9      0.0    128.1       64    250.3    250.0      100     0.000     0.000     0.000     0.000      107        0        0        0       11        2        0    20.705       96     40.0    8.291   -9.900     2.19    0.000    0.000       11        9     1982  Maize_Short_Soroca_22May_Optimum_26_MOHC.PRM
   Tot(3)       22        5     1983    219.2    435.3   1214.1   342.84      0.0    214.3      4.9      0.1      0.0    106.4       56    242.1    241.1      100     0.000     0.000     0.000     0.000      107        0        0        0       11        1        0    20.404       97     40.0    8.162   -9.900     2.34    0.000    0.000       11        9     1983  Maize_Short_Soroca_22May_Optimum_26_MOHC.PRM
   Tot(4)       22        5     1984    324.1    420.3   1075.3   344.40      0.0    305.9     18.2     19.5      0.0    155.4       90    234.9    236.4      100     0.000     0.000     0.000     0.000      107        0        0        0       18        0        0    19.737       98     40.0    7.895   -9.900     2.02    0.000    0.000       11        9     1984  Maize_Short_Soroca_22May_Optimum_26_MOHC.PRM
   Tot(5)       22        5     1985    381.4    448.7   1131.4   345.87      0.0    343.1     38.3     63.4      0.0    143.5       80    261.4    261.9      100     0.000     0.000     0.000     0.000      107        0        0        0       17        1        0    19.769       97     40.1    7.930   -9.900     1.96    0.000    0.000       11        9     1985  Maize_Short_Soroca_22May_Optimum_26_MOHC.PRM
   Tot(6)       22        5     1986    162.2    512.9   1240.3   347.19      0.0    161.8      0.4      0.0      0.0    109.8       46    253.4    252.8       94     0.000     0.000     0.000     0.000      107        0        0        0       13        7        5    18.052       88     40.1    7.241   -9.900     1.99    0.000    0.000       11        9     1986  Maize_Short_Soroca_22May_Optimum_26_MOHC.PRM
   Tot(7)       22        5     1987    256.6    456.5   1133.8   348.98      0.0    246.2     10.4     15.1      0.0    136.1       68    245.6    245.3      100     0.000     0.000     0.000     0.000      107        0        0        0       17       12        0    18.730       94     40.5    7.588   -9.900     1.99    0.000    0.000       11        9     1987  Maize_Short_Soroca_22May_Optimum_26_MOHC.PRM
   Tot(8)       22        5     1988    324.3    426.4   1235.2   351.45      0.0    304.9     19.4     38.9      0.0    140.6       84    261.7    262.8      100     0.000     0.000     0.000     0.000      107        0        0        0       12        1        0    20.589       98     40.1    8.252   -9.900     2.05    0.000    0.000       11        9     1988  Maize_Short_Soroca_22May_Optimum_26_MOHC.PRM
   Tot(9)       22        5     1989    398.6    434.0   1151.2   352.89      0.0    334.0     64.6     24.5      0.0    114.7       60    245.6    246.2      100     0.000     0.000     0.000     0.000      107        0        0        0       14        4        0    19.987       96     40.1    8.023   -9.900     2.23    0.000    0.000       11        9     1989  Maize_Short_Soroca_22May_Optimum_26_MOHC.PRM
  Tot(10)       22        5     1990    193.6    463.7   1109.4   354.16      0.0    190.8      2.8      6.4      0.0    145.0       75    243.2    243.1       92     0.000     0.000     0.000     0.000      107        0        0        0       17        6        8    18.291       87     40.2    7.347   -9.900     1.89    0.000    0.000       11        9     1990  Maize_Short_Soroca_22May_Optimum_26_MOHC.PRM
  Tot(11)       22        5     1991    419.0    410.7   1159.5   355.48      0.0    366.8     52.2     52.7      0.0    138.5       81    241.6    240.6      100     0.000     0.000     0.000     0.000      107        0        0        0       14        1        0    20.834       98     40.0    8.339   -9.900     2.19    0.000    0.000       11        9     1991  Maize_Short_Soroca_22May_Optimum_26_MOHC.PRM
  Tot(12)       22        5     1992    208.9    511.5   1268.1   356.27      0.0    203.2      5.7     14.5      0.0    147.2       71    241.9    243.0       80     0.000     0.000     0.000     0.000      107        0        0        0       11       13       14    15.503       70     39.8    6.174   -9.900     1.59    0.000    0.000       11        9     1992  Maize_Short_Soroca_22May_Optimum_26_MOHC.PRM
  Tot(13)       22        5     1993    240.0    450.5   1102.8   356.95      0.0    233.7      6.3      5.7      0.0    119.2       61    243.7    242.4      100     0.000     0.000     0.000     0.000      107        0        0        0       17        2        0    19.030       97     40.1    7.623   -9.900     2.10    0.000    0.000       11        9     1993  Maize_Short_Soroca_22May_Optimum_26_MOHC.PRM
  Tot(14)       22        5     1994    254.5    502.2   1248.0   358.63      0.0    222.8     31.7     20.8      0.0    124.3       56    248.7    248.7       87     0.000     0.000     0.000     0.000      107        0        0        0       12       13        8    17.227       76     40.5    6.973   -9.900     1.87    0.000    0.000       11        9     1994  Maize_Short_Soroca_22May_Optimum_26_MOHC.PRM
  Tot(15)       22        5     1995    376.0    484.7   1320.2   360.62      0.0    320.5     55.5     21.5      0.0    109.4       50    278.5    278.2      100     0.000     0.000     0.000     0.000      107        0        0        0        6        4        0    21.120       95     40.1    8.460   -9.900     2.18    0.000    0.000       11        9     1995  Maize_Short_Soroca_22May_Optimum_26_MOHC.PRM
  Tot(16)       22        5     1996    300.9    473.4   1194.7   362.37      0.0    280.7     20.2     14.7      0.0     98.5       42    244.4    246.0      100     0.000     0.000     0.000     0.000      107        0        0        0       13        3        0    19.712       95     40.0    7.885   -9.900     2.30    0.000    0.000       11        9     1996  Maize_Short_Soroca_22May_Optimum_26_MOHC.PRM
  Tot(17)       22        5     1997    330.4    417.9   1118.9   363.47      0.0    311.2     19.2     16.2      0.0    121.6       65    228.4    228.1      100     0.000     0.000     0.000     0.000      107        0        0        0       15        1        0    20.623       97     40.0    8.249   -9.900     2.36    0.000    0.000       11        9     1997  Maize_Short_Soroca_22May_Optimum_26_MOHC.PRM
  Tot(18)       22        5     1998    279.4    435.7   1188.1   366.50      0.0    261.5     17.9     17.9      0.0    117.5       66    246.1    244.0      100     0.000     0.000     0.000     0.000      107        0        0        0       15        1        0    19.204       97     40.0    7.683   -9.900     2.11    0.000    0.000       11        9     1998  Maize_Short_Soroca_22May_Optimum_26_MOHC.PRM
  Tot(19)       22        5     1999    167.8    514.8   1406.8   368.14      0.0    167.8      0.0      0.0      0.0    106.3       41    257.4    258.5       94     0.000     0.000     0.000     0.000      107        0        0        0        3       16        4    19.349       84     40.5    7.845   -9.900     2.16    0.000    0.000       11        9     1999  Maize_Short_Soroca_22May_Optimum_26_MOHC.PRM
  Tot(20)       22        5     2000    266.5    494.1   1237.4   369.41      0.0    256.4     10.1     11.7      0.0    112.2       48    270.3    269.9      100     0.000     0.000     0.000     0.000      107        0        0        0       12        2        0    20.703       95     40.0    8.282   -9.900     2.17    0.000    0.000       11        9     2000  Maize_Short_Soroca_22May_Optimum_26_MOHC.PRM
  Tot(21)       22        5     2001    315.8    471.8   1256.9   371.07      0.0    291.7     24.1     19.9      0.0    135.7       74    285.6    287.3       96     0.000     0.000     0.000     0.000      107        0        0        0       13        1        4    20.484       92     40.0    8.190   -9.900     1.94    0.000    0.000       11        9     2001  Maize_Short_Soroca_22May_Optimum_26_MOHC.PRM
  Tot(22)       22        5     2002    383.6    500.9   1374.8   373.16      0.0    349.5     34.1      2.8      0.0    144.8       64    295.6    295.2      100     0.000     0.000     0.000     0.000      107        0        0        0        7       10        0    21.668       93     40.1    8.690   -9.900     1.97    0.000    0.000       11        9     2002  Maize_Short_Soroca_22May_Optimum_26_MOHC.PRM
  Tot(23)       22        5     2003    341.0    524.1   1271.7   375.80      0.0    288.4     52.6     47.8      0.0    102.3       39    266.2    265.0      100     0.000     0.000     0.000     0.000      107        0        0        0       11        4        0    20.090       94     40.0    8.038   -9.900     2.18    0.000    0.000       11        9     2003  Maize_Short_Soroca_22May_Optimum_26_MOHC.PRM
  Tot(24)       22        5     2004    246.8    480.3   1170.9   377.49      0.0    225.9     20.9      0.0      0.0     76.1       31    243.8    245.6      100     0.000     0.000     0.000     0.000      107        0        0        0       12        7        0    20.107       93     40.1    8.065   -9.900     2.52    0.000    0.000       11        9     2004  Maize_Short_Soroca_22May_Optimum_26_MOHC.PRM
  Tot(25)       22        5     2005    191.9    472.0   1278.0   379.80      0.0    190.3      1.6      0.5      0.0    108.7       51    269.4    267.5       99     0.000     0.000     0.000     0.000      107        0        0        0        8        5        1    21.696       95     40.2    8.724   -9.900     2.31    0.000    0.000       11        9     2005  Maize_Short_Soroca_22May_Optimum_26_MOHC.PRM
  Tot(26)       22        5     2006    297.5    485.6   1226.9   381.90      0.0    283.3     14.2     20.3      0.0    130.8       64    286.8    287.4       99     0.000     0.000     0.000     0.000      107        0        0        0       14       11        0    20.990       94     40.5    8.503   -9.900     2.04    0.000    0.000       11        9     2006  Maize_Short_Soroca_22May_Optimum_26_MOHC.PRM
  Tot(27)       22        5     2007    171.9    576.2   1439.4   383.77      0.0    171.9      0.0      0.0      0.0    111.7       35    248.0    248.3       90     0.000     0.000     0.000     0.000      107        0        0        0        5       24        7    16.856       74     40.8    6.870   -9.900     1.91    0.000    0.000       11        9     2007  Maize_Short_Soroca_22May_Optimum_26_MOHC.PRM
  Tot(28)       22        5     2008    348.1    533.3   1326.6   385.59      0.0    288.2     59.9      0.7      0.0    123.6       54    317.8    317.1      100     0.000     0.000     0.000     0.000      107        0        0        0        6        6        0    21.950       94     40.0    8.780   -9.900     1.99    0.000    0.000       11        9     2008  Maize_Short_Soroca_22May_Optimum_26_MOHC.PRM
  Tot(29)       22        5     2009    203.0    548.8   1334.5   387.37      0.0    201.4      1.6      0.3      0.0    154.6       62    265.5    266.8       86     0.000     0.000     0.000     0.000      107        0        0        0        7        8       13    17.783       76     40.0    7.113   -9.900     1.69    0.000    0.000       11        9     2009  Maize_Short_Soroca_22May_Optimum_26_MOHC.PRM
  Tot(30)       22        5     2010    347.1    480.7   1367.9   389.85      0.0    318.5     28.6     55.2      0.0    140.3       70    283.4    282.4       98     0.000     0.000     0.000     0.000      107        0        0        0        9        1        1    21.105       96     40.0    8.452   -9.900     2.00    0.000    0.000       11        9     2010  Maize_Short_Soroca_22May_Optimum_26_MOHC.PRM
  Tot(31)       22        5     2011    182.7    539.3   1341.3   391.63      0.0    180.8      1.9      0.0      0.0    124.7       48    270.0    270.8       91     0.000     0.000     0.000     0.000      107        0        0        0        6        7        8    19.361       84     39.9    7.733   -9.900     1.96    0.000    0.000       11        9     2011  Maize_Short_Soroca_22May_Optimum_26_MOHC.PRM
  Tot(32)       22        5     2012    126.3    606.4   1414.1   393.82      0.0    126.0      0.3      0.0      0.0    116.6       35    223.3    223.5       79     0.000     0.000     0.000     0.000      107        0        0        0        6       25       16    13.891       61     40.4    5.608   -9.900     1.65    0.000    0.000       11        9     2012  Maize_Short_Soroca_22May_Optimum_26_MOHC.PRM
  Tot(33)       22        5     2013    245.3    495.7   1303.4   396.48      0.0    225.7     19.6     20.7      0.0    155.8       71    237.6    237.3       86     0.000     0.000     0.000     0.000      107        0        0        0        7        9        8    17.534       77     40.2    7.050   -9.900     1.79    0.000    0.000       11        9     2013  Maize_Short_Soroca_22May_Optimum_26_MOHC.PRM
  Tot(34)       22        5     2014    253.7    516.6   1359.2   398.55      0.0    231.9     21.8     10.0      0.0    103.5       48    307.9    306.5       99     0.000     0.000     0.000     0.000      107        0        0        0        7        2        1    22.091       95     40.0    8.837   -9.900     2.15    0.000    0.000       11        9     2014  Maize_Short_Soroca_22May_Optimum_26_MOHC.PRM
  Tot(35)       22        5     2015     64.6    613.4   1397.9   401.00      0.0     64.6      0.0      0.0      0.0     90.2       24    179.8    182.0       77     0.000     0.000     0.000     0.000       97        0        0        0        5       28       19    10.585       46     34.0    3.601   -9.900     1.39    0.000    0.000       11        9     2015  Maize_Short_Soroca_22May_Optimum_26_MOHC.PRM
  Tot(36)       22        5     2016    223.5    541.1   1411.6   403.00      0.0    221.3      2.2      0.5      0.0    172.0       75    271.0    270.3       84     0.000     0.000     0.000     0.000      107        0        0        0        5       16       13    17.853       75     40.4    7.212   -9.900     1.63    0.000    0.000       11        9     2016  Maize_Short_Soroca_22May_Optimum_26_MOHC.PRM
  Tot(37)       22        5     2017    190.2    557.9   1350.9   405.00      0.0    188.7      1.5      0.3      0.0    148.1       57    258.0    258.1       86     0.000     0.000     0.000     0.000      107        0        0        0        6       12       13    17.375       75     40.1    6.968   -9.900     1.72    0.000    0.000       11        9     2017  Maize_Short_Soroca_22May_Optimum_26_MOHC.PRM
  Tot(38)       22        5     2018    247.0    517.0   1451.6   408.00      0.0    234.6     12.4      7.5      0.0    111.3       46    293.2    292.8       99     0.000     0.000     0.000     0.000      107        0        0        0        4        3        1    22.331       94     40.0    8.931   -9.900     2.21    0.000    0.000       11        9     2018  Maize_Short_Soroca_22May_Optimum_26_MOHC.PRM
  Tot(39)       22        5     2019    224.9    551.2   1441.3   410.00      0.0    207.2     17.7     24.8      0.0    162.1       65    244.6    245.3       82     0.000     0.000     0.000     0.000      107        0        0        0        3        9       16    17.121       72     39.6    6.786   -9.900     1.67    0.000    0.000       11        9     2019  Maize_Short_Soroca_22May_Optimum_26_MOHC.PRM
  Tot(40)       22        5     2020    176.5    651.4   1501.1   412.00      0.0    169.4      7.1      5.3      0.0    123.3       35    199.3    199.5       71     0.000     0.000     0.000     0.000       90        0        0        0       10       25       22     9.847       41     26.4    2.603   -9.900     0.87    0.000    0.000       11        9     2020  Maize_Short_Soroca_22May_Optimum_26_MOHC.PRM
  Tot(41)       22        5     2021    140.5    649.0   1533.9   414.00      0.0    131.7      8.8      0.0      0.0    111.2       29    226.1    225.3       81     0.000     0.000     0.000     0.000      107        0        0        0        2       35       13    12.983       54     40.6    5.271   -9.900     1.56    0.000    0.000       11        9     2021  Maize_Short_Soroca_22May_Optimum_26_MOHC.PRM
  Tot(42)       22        5     2022    154.2    665.0   1586.6   417.00      0.0    148.4      5.8      2.1      0.0    129.5       37    238.1    239.0       77     0.000     0.000     0.000     0.000      102        0        0        0        5       23       20    13.276       54     38.0    5.044   -9.900     1.38    0.000    0.000       11        9     2022  Maize_Short_Soroca_22May_Optimum_26_MOHC.PRM
  Tot(43)       22        5     2023     90.6    730.0   1628.6   419.00      0.0     90.5      0.1      0.0      0.0    111.2       23    162.7    162.7       71     0.000     0.000     0.000     0.000       85        0        0        0        1       33       20     7.951       33     22.2    1.763   -9.900     0.69    0.000    0.000       11        9     2023  Maize_Short_Soroca_22May_Optimum_26_MOHC.PRM
  Tot(44)       22        5     2024    164.6    604.7   1506.6   421.00      0.0    140.9     23.7     22.2      0.0    127.9       44    210.9    210.9       74     0.000     0.000     0.000     0.000       98        0        0        0        3       14       21    13.139       54     34.4    4.518   -9.900     1.35    0.000    0.000       11        9     2024  Maize_Short_Soroca_22May_Optimum_26_MOHC.PRM
  Tot(45)       22        5     2025    185.1    596.5   1386.6   423.00      0.0    155.5     29.6      2.5      0.0    107.9       28    160.9    160.7       73     0.000     0.000     0.000     0.000      107        0        0        0       11       34       15     8.077       36     31.7    2.564   -9.900     0.95    0.000    0.000       11        9     2025  Maize_Short_Soroca_22May_Optimum_26_MOHC.PRM
  Tot(46)       22        5     2026     92.6    730.0   1644.5   424.00      0.0     90.5      2.1      0.0      0.0     85.0       22    224.7    224.8       72     0.000     0.000     0.000     0.000       95        0        0        0        3       20       22    11.191       46     27.7    3.103   -9.900     1.01    0.000    0.000       11        9     2026  Maize_Short_Soroca_22May_Optimum_26_MOHC.PRM
  Tot(47)       22        5     2027     68.7    697.0   1608.3   426.00      0.0     67.7      1.0      1.2      0.0     99.6       22    162.8    162.8       72     0.000     0.000     0.000     0.000       85        0        0        0        2       33       20     7.896       33     21.5    1.698   -9.900     0.65    0.000    0.000       11        9     2027  Maize_Short_Soroca_22May_Optimum_26_MOHC.PRM
  Tot(48)       22        5     2028    202.7    680.4   1511.9   428.00      0.0    167.3     35.4      0.0      0.0    123.8       25    151.5    151.5       76     0.000     0.000     0.000     0.000       87        0        0        0        6       39       18     6.397       27     22.2    1.418   -9.900     0.55    0.000    0.000       11        9     2028  Maize_Short_Soroca_22May_Optimum_26_MOHC.PRM
  Tot(49)       22        5     2029    178.6    628.4   1536.0   429.00      0.0    152.6     26.0     52.5      0.0    123.2       37    182.0    182.0       71     0.000     0.000     0.000     0.000       89        0        0        0        4       25       22     9.973       41     25.6    2.553   -9.900     0.88    0.000    0.000       11        9     2029  Maize_Short_Soroca_22May_Optimum_26_MOHC.PRM
  Tot(50)       22        5     2030     39.0    781.3   1728.4   431.00      0.0     39.0      0.0      0.0      0.0     79.9       14    147.4    147.4       73     0.000     0.000     0.000     0.000       84        0        0        0        0       39       19     6.392       26     21.0    1.340   -9.900     0.59    0.000    0.000       11        9     2030  Maize_Short_Soroca_22May_Optimum_26_MOHC.PRM
  Tot(51)       22        5     2031    152.9    656.6   1577.6   432.00      0.0    147.5      5.4      1.9      0.0    116.7       36    250.8    250.8       78     0.000     0.000     0.000     0.000      103        0        0        0        4       13       21    14.015       57     39.0    5.464   -9.900     1.49    0.000    0.000       11        9     2031  Maize_Short_Soroca_22May_Optimum_26_MOHC.PRM
  Tot(52)       22        5     2032    118.9    749.3   1687.6   433.00      0.0    111.0      7.9      8.5      0.0    115.7       21    148.9    148.9       73     0.000     0.000     0.000     0.000       82        0        0        0        2       39       20     6.384       26     19.0    1.212   -9.900     0.50    0.000    0.000       11        9     2032  Maize_Short_Soroca_22May_Optimum_26_MOHC.PRM
  Tot(53)       22        5     2033    138.0    723.2   1651.8   435.00      0.0    131.2      6.8      6.8      0.0    147.2       32    161.7    161.7       68     0.000     0.000     0.000     0.000       82        0        0        0        1       33       22     7.477       31     16.5    1.231   -9.900     0.41    0.000    0.000       11        9     2033  Maize_Short_Soroca_22May_Optimum_26_MOHC.PRM
  Tot(54)       22        5     2034    282.6    512.2   1401.9   436.00      0.0    270.2     12.4     13.4      0.0    135.8       70    299.0    298.7       91     0.000     0.000     0.000     0.000      107        0        0        0        4        1        5    21.697       90     39.8    8.632   -9.900     1.99    0.000    0.000       11        9     2034  Maize_Short_Soroca_22May_Optimum_26_MOHC.PRM
  Tot(55)       22        5     2035     96.3    656.1   1550.4   437.00      0.0     96.2      0.1      0.0      0.0    111.7       30    193.5    193.8       72     0.000     0.000     0.000     0.000       91        0        0        0        1       25       21    10.189       42     27.6    2.817   -9.900     0.93    0.000    0.000       11        9     2035  Maize_Short_Soroca_22May_Optimum_26_MOHC.PRM
  Tot(56)       22        5     2036    105.8    718.6   1549.3   438.00      0.0    104.4      1.4      0.0      0.0    124.6       28    174.8    174.8       69     0.000     0.000     0.000     0.000       84        0        0        0        3       32       22     7.915       34     20.5    1.625   -9.900     0.58    0.000    0.000       11        9     2036  Maize_Short_Soroca_22May_Optimum_26_MOHC.PRM
  Tot(57)       22        5     2037     76.7    722.7   1625.6   438.00      0.0     76.3      0.4      0.0      0.0    107.0       22    166.3    166.3       75     0.000     0.000     0.000     0.000       88        0        0        0        2       36       19     8.010       33     25.1    2.007   -9.900     0.74    0.000    0.000       11        9     2037  Maize_Short_Soroca_22May_Optimum_26_MOHC.PRM
  Tot(58)       22        5     2038    202.5    540.9   1393.1   439.00      0.0    185.7     16.8     37.7      0.0    150.3       60    208.0    208.0       76     0.000     0.000     0.000     0.000       99        0        0        0        5       14       20    13.708       57     35.6    4.885   -9.900     1.40    0.000    0.000       11        9     2038  Maize_Short_Soroca_22May_Optimum_26_MOHC.PRM
  Tot(59)       22        5     2039     65.3    719.4   1640.0   440.00      0.0     65.3      0.0      0.0      0.0     96.9       20    156.0    156.0       74     0.000     0.000     0.000     0.000       84        0        0        0        3       37       20     7.247       29     21.0    1.519   -9.900     0.64    0.000    0.000       11        9     2039  Maize_Short_Soroca_22May_Optimum_26_MOHC.PRM
  Tot(60)       22        5     2040     46.5    714.3   1565.9   440.00      0.0     46.5      0.0      0.0      0.0     78.0       16    160.6    160.6       74     0.000     0.000     0.000     0.000       86        0        0        0        3       35       19     7.761       32     23.0    1.781   -9.900     0.77    0.000    0.000       11        9     2040  Maize_Short_Soroca_22May_Optimum_26_MOHC.PRM
  Tot(61)       22        5     2041     80.0    719.9   1588.3   441.00      0.0     79.9      0.1      0.0      0.0    108.2       24    174.0    174.0       72     0.000     0.000     0.000     0.000       87        0        0        0        4       31       21     8.770       36     23.7    2.080   -9.900     0.75    0.000    0.000       11        9     2041  Maize_Short_Soroca_22May_Optimum_26_MOHC.PRM
  Tot(62)       22        5     2042    245.4    546.8   1421.8   441.00      0.0    195.3     50.1     45.8      0.0    117.5       50    251.9    251.8       81     0.000     0.000     0.000     0.000      107        0        0        0        7       13       17    16.574       68     39.8    6.598   -9.900     1.79    0.000    0.000       11        9     2042  Maize_Short_Soroca_22May_Optimum_26_MOHC.PRM
  Tot(63)       22        5     2043    118.1    685.4   1617.7   441.00      0.0    110.6      7.5      7.6      0.0    130.2       32    176.1    176.2       69     0.000     0.000     0.000     0.000       86        0        0        0        2       30       22     8.840       36     12.9    1.142   -9.900     0.38    0.000    0.000       11        9     2043  Maize_Short_Soroca_22May_Optimum_26_MOHC.PRM
  Tot(64)       22        5     2044    211.4    595.3   1517.9   442.00      0.0    203.4      8.0      6.2      0.0    168.4       62    245.2    244.9       76     0.000     0.000     0.000     0.000      107        0        0        0        3       12       21    14.735       61     39.2    5.778   -9.900     1.40    0.000    0.000       11        9     2044  Maize_Short_Soroca_22May_Optimum_26_MOHC.PRM
  Tot(65)       22        5     2045    250.7    566.7   1411.9   442.00      0.0    213.7     37.0     50.7      0.0    143.8       52    199.9    200.0       72     0.000     0.000     0.000     0.000      107        0        0        0        7       19       17    12.166       52     39.8    4.847   -9.900     1.41    0.000    0.000       11        9     2045  Maize_Short_Soroca_22May_Optimum_26_MOHC.PRM
  Tot(66)       22        5     2046     44.5    820.4   1834.1   442.00      0.0     43.6      0.9      0.9      0.0     84.2       13    142.8    142.9       79     0.000     0.000     0.000     0.000       88        0        0        0        0       43       17     5.816       23     11.3    0.659   -9.900     0.30    0.000    0.000       11        9     2046  Maize_Short_Soroca_22May_Optimum_26_MOHC.PRM
  Tot(67)       22        5     2047    171.1    649.4   1604.6   442.00      0.0    161.5      9.6     29.4      0.0    131.8       38    197.7    197.7       71     0.000     0.000     0.000     0.000       91        0        0        0        1       23       21    10.857       44     27.7    3.010   -9.900     0.95    0.000    0.000       11        9     2047  Maize_Short_Soroca_22May_Optimum_26_MOHC.PRM
  Tot(68)       22        5     2048    174.9    548.0   1381.2   442.00      0.0    173.6      1.3      0.0      0.0    120.5       47    258.9    257.9       86     0.000     0.000     0.000     0.000      107        0        0        0        8       21       11    17.092       74     40.7    6.954   -9.900     1.83    0.000    0.000       11        9     2048  Maize_Short_Soroca_22May_Optimum_26_MOHC.PRM
  Tot(69)       22        5     2049    256.6    560.8   1457.9   443.00      0.0    235.1     21.5     13.9      0.0    121.2       48    303.9    303.6       95     0.000     0.000     0.000     0.000      107        0        0        0        5       13        4    20.777       87     40.5    8.413   -9.900     1.98    0.000    0.000       11        9     2049  Maize_Short_Soroca_22May_Optimum_26_MOHC.PRM
  Tot(70)       22        5     2050    174.6    621.0   1557.2   443.00      0.0    172.7      1.9      2.7      0.0    164.3       49    195.4    196.5       73     0.000     0.000     0.000     0.000      107        0        0        0        3       27       17    10.410       43     36.2    3.767   -9.900     1.05    0.000    0.000       11        9     2050  Maize_Short_Soroca_22May_Optimum_26_MOHC.PRM
  Tot(71)       22        5     2051    169.1    664.0   1597.2   443.00      0.0    164.9      4.2     12.4      0.0    153.7       44    209.0    209.1       73     0.000     0.000     0.000     0.000       92        0        0        0        3       21       21    11.150       45     28.8    3.208   -9.900     0.90    0.000    0.000       11        9     2051  Maize_Short_Soroca_22May_Optimum_26_MOHC.PRM
  Tot(72)       22        5     2052    149.3    603.7   1572.4   443.00      0.0    149.1      0.2      0.0      0.0    125.8       44    244.7    244.7       79     0.000     0.000     0.000     0.000      103        0        0        0        1       11       20    14.659       60     39.3    5.758   -9.900     1.56    0.000    0.000       11        9     2052  Maize_Short_Soroca_22May_Optimum_26_MOHC.PRM
  Tot(73)       22        5     2053    143.4    623.1   1569.4   443.00      0.0    143.4      0.0      0.0      0.0    150.9       43    187.9    187.9       73     0.000     0.000     0.000     0.000       93        0        0        0        2       25       20    10.958       45     30.1    3.300   -9.900     1.00    0.000    0.000       11        9     2053  Maize_Short_Soroca_22May_Optimum_26_MOHC.PRM
  Tot(74)       22        5     2054    105.0    562.3   1411.8   443.00      0.0    103.2      1.8      0.6      0.0    108.6       39    212.8    212.8       76     0.000     0.000     0.000     0.000      107        0        0        0        4       24       21    13.873       58     40.0    5.545   -9.900     1.72    0.000    0.000       11        9     2054  Maize_Short_Soroca_22May_Optimum_26_MOHC.PRM
  Tot(75)       22        5     2055    143.0    625.7   1551.2   443.00      0.0    131.5     11.5     28.8      0.0    110.9       32    215.3    215.0       74     0.000     0.000     0.000     0.000      107        0        0        0        2       30       20    13.195       54     39.7    5.235   -9.900     1.60    0.000    0.000       11        9     2055  Maize_Short_Soroca_22May_Optimum_26_MOHC.PRM
  Tot(76)       22        5     2056    147.1    659.4   1571.8   442.00      0.0    139.3      7.8      6.2      0.0    140.3       39    195.3    195.6       69     0.000     0.000     0.000     0.000      107        0        0        0        2       24       23    10.591       44     34.8    3.682   -9.900     1.10    0.000    0.000       11        9     2056  Maize_Short_Soroca_22May_Optimum_26_MOHC.PRM
  Tot(77)       22        5     2057    172.2    665.1   1607.3   442.00      0.0    163.0      9.2     14.6      0.0    146.1       46    224.0    224.0       68     0.000     0.000     0.000     0.000      101        0        0        0        1       22       25    12.328       50     36.8    4.535   -9.900     1.23    0.000    0.000       11        9     2057  Maize_Short_Soroca_22May_Optimum_26_MOHC.PRM
  Tot(78)       22        5     2058     61.2    679.1   1581.4   442.00      0.0     61.1      0.1      0.0      0.0     82.4       19    188.1    188.1       75     0.000     0.000     0.000     0.000       95        0        0        0        1       32       20    10.258       43     31.7    3.255   -9.900     1.21    0.000    0.000       11        9     2058  Maize_Short_Soroca_22May_Optimum_26_MOHC.PRM
  Tot(79)       22        5     2059    173.8    623.3   1556.8   442.00      0.0    160.4     13.4     18.7      0.0    100.6       32    260.8    260.4       81     0.000     0.000     0.000     0.000      107        0        0        0        5       22       16    15.546       63     40.0    6.223   -9.900     1.72    0.000    0.000       11        9     2059  Maize_Short_Soroca_22May_Optimum_26_MOHC.PRM
  Tot(80)       22        5     2060    129.3    604.1   1488.5   442.00      0.0    119.1     10.2     14.9      0.0    107.3       34    206.5    206.9       75     0.000     0.000     0.000     0.000       97        0        0        0        3       21       21    12.337       50     33.5    4.138   -9.900     1.34    0.000    0.000       11        9     2060  Maize_Short_Soroca_22May_Optimum_26_MOHC.PRM
  Tot(81)       22        5     2061    233.7    611.7   1529.8   441.00      0.0    158.5     75.2     77.0      0.0     98.1       31    198.1    198.1       73     0.000     0.000     0.000     0.000       93        0        0        0        2       22       21    11.415       46     29.8    3.402   -9.900     1.17    0.000    0.000       11        9     2061  Maize_Short_Soroca_22May_Optimum_26_MOHC.PRM
  Tot(82)       22        5     2062    148.0    626.7   1536.3   441.00      0.0    146.9      1.1      0.0      0.0    129.4       40    238.8    238.5       76     0.000     0.000     0.000     0.000      107        0        0        0        4       24       20    14.093       57     39.7    5.591   -9.900     1.52    0.000    0.000       11        9     2062  Maize_Short_Soroca_22May_Optimum_26_MOHC.PRM
  Tot(83)       22        5     2063    150.8    615.3   1547.6   441.00      0.0    147.4      3.4      2.3      0.0    149.2       44    178.5    178.7       70     0.000     0.000     0.000     0.000       89        0        0        0        2       28       21     9.559       39     25.6    2.444   -9.900     0.81    0.000    0.000       11        9     2063  Maize_Short_Soroca_22May_Optimum_26_MOHC.PRM
  Tot(84)       22        5     2064    125.7    666.8   1567.2   440.00      0.0    120.3      5.4      0.0      0.0    118.1       30    169.3    169.3       69     0.000     0.000     0.000     0.000       85        0        0        0        1       31       22     8.328       35     21.6    1.797   -9.900     0.69    0.000    0.000       11        9     2064  Maize_Short_Soroca_22May_Optimum_26_MOHC.PRM
  Tot(85)       22        5     2065     82.5    701.3   1609.0   440.00      0.0     82.5      0.0      0.0      0.0    112.2       22    163.2    163.2       82     0.000     0.000     0.000     0.000       98        0        0        0        1       40       16     8.399       34     35.5    2.985   -9.900     1.11    0.000    0.000       11        9     2065  Maize_Short_Soroca_22May_Optimum_26_MOHC.PRM
  Tot(86)       22        5     2066    250.8    582.6   1480.0   440.00      0.0    212.6     38.2      9.2      0.0    137.1       50    246.3    245.1       81     0.000     0.000     0.000     0.000      107        0        0        0        3       19       10    16.019       67     40.4    6.474   -9.900     1.69    0.000    0.000       11        9     2066  Maize_Short_Soroca_22May_Optimum_26_MOHC.PRM
  Tot(87)       22        5     2067    159.8    612.5   1472.3   439.00      0.0    147.6     12.2      0.0      0.0    108.8       31    218.8    218.8       82     0.000     0.000     0.000     0.000      107        0        0        0        4       33       10    13.219       54     40.6    5.373   -9.900     1.64    0.000    0.000       11        9     2067  Maize_Short_Soroca_22May_Optimum_26_MOHC.PRM
  Tot(88)       22        5     2068    217.4    526.8   1328.2   439.00      0.0    205.0     12.4     17.7      0.0    123.9       55    276.5    276.7       90     0.000     0.000     0.000     0.000      107        0        0        0        5        8        9    19.566       82     40.4    7.895   -9.900     1.97    0.000    0.000       11        9     2068  Maize_Short_Soroca_22May_Optimum_26_MOHC.PRM
  Tot(89)       22        5     2069     73.9    650.2   1609.4   438.00      0.0     73.9      0.0      0.0      0.0     96.9       25    196.1    197.0       73     0.000     0.000     0.000     0.000      107        0        0        0        1       33       23    11.301       46     39.7    4.488   -9.900     1.53    0.000    0.000       11        9     2069  Maize_Short_Soroca_22May_Optimum_26_MOHC.PRM
  Tot(90)       22        5     2070    143.6    570.3   1445.4   437.00      0.0    140.4      3.2      0.0      0.0    113.6       40    228.9    228.5       80     0.000     0.000     0.000     0.000      107        0        0        0        5       22       15    14.758       62     40.4    5.968   -9.900     1.74    0.000    0.000       11        9     2070  Maize_Short_Soroca_22May_Optimum_26_MOHC.PRM
  Tot(91)       22        5     2071     77.2    606.9   1476.6   437.00      0.0     77.2      0.0      0.0      0.0     99.5       27    183.4    183.9       77     0.000     0.000     0.000     0.000       97        0        0        0        4       28       18    10.748       46     34.1    3.662   -9.900     1.34    0.000    0.000       11        9     2071  Maize_Short_Soroca_22May_Optimum_26_MOHC.PRM
  Tot(92)       22        5     2072     58.8    624.6   1504.3   436.00      0.0     58.8      0.0      0.0      0.0     82.3       22    191.5    191.5       78     0.000     0.000     0.000     0.000      103        0        0        0        2       34       19    11.292       46     39.9    4.510   -9.900     1.66    0.000    0.000       11        9     2072  Maize_Short_Soroca_22May_Optimum_26_MOHC.PRM
  Tot(93)       22        5     2073     94.2    695.7   1626.4   436.00      0.0     90.0      4.2      6.6      0.0    118.7       25    160.1    160.1       76     0.000     0.000     0.000     0.000       88        0        0        0        0       37       19     7.972       33     25.1    1.999   -9.900     0.73    0.000    0.000       11        9     2073  Maize_Short_Soroca_22May_Optimum_26_MOHC.PRM
  Tot(94)       22        5     2074    106.7    596.2   1386.1   435.00      0.0    104.2      2.5      5.0      0.0    105.6       36    212.8    212.8       75     0.000     0.000     0.000     0.000       97        0        0        0        7       19       20    12.347       51     33.6    4.147   -9.900     1.31    0.000    0.000       11        9     2074  Maize_Short_Soroca_22May_Optimum_26_MOHC.PRM
  Tot(95)       22        5     2075    147.4    547.8   1384.2   435.00      0.0    145.9      1.5      2.0      0.0    126.7       55    232.8    232.2       75     0.000     0.000     0.000     0.000      107        0        0        0        7       17       18    15.051       64     40.0    6.020   -9.900     1.67    0.000    0.000       11        9     2075  Maize_Short_Soroca_22May_Optimum_26_MOHC.PRM
  Tot(96)       22        5     2076     86.3    712.4   1672.1   434.00      0.0     85.7      0.6      0.4      0.0    115.7       25    169.7    170.3       71     0.000     0.000     0.000     0.000       86        0        0        0        1       32       20     8.464       34     23.1    1.958   -9.900     0.69    0.000    0.000       11        9     2076  Maize_Short_Soroca_22May_Optimum_26_MOHC.PRM
  Tot(97)       22        5     2077     74.2    724.7   1559.4   433.00      0.0     73.3      0.9      0.0      0.0    110.7       21    153.2    153.2       78     0.000     0.000     0.000     0.000       88        0        0        0        3       39       17     7.100       29     25.2    1.790   -9.900     0.68    0.000    0.000       11        9     2077  Maize_Short_Soroca_22May_Optimum_26_MOHC.PRM
  Tot(98)       22        5     2078    145.7    625.6   1619.0   433.00      0.0    145.6      0.1      0.0      0.0    150.3       47    215.5    215.5       75     0.000     0.000     0.000     0.000       98        0        0        0        1       19       20    13.034       53     34.3    4.470   -9.900     1.24    0.000    0.000       11        9     2078  Maize_Short_Soroca_22May_Optimum_26_MOHC.PRM
  Tot(99)       22        5     2079    144.5    601.6   1465.4   432.00      0.0    138.8      5.7      9.2      0.0    114.9       37    196.8    196.8       73     0.000     0.000     0.000     0.000       92        0        0        0        6       23       21    10.886       45     28.6    3.113   -9.900     1.04    0.000    0.000       11        9     2079  Maize_Short_Soroca_22May_Optimum_26_MOHC.PRM
 Tot(100)       22        5     2080    120.3    633.3   1520.2   432.00      0.0    119.4      0.9      1.3      0.0    131.8       37    179.3    179.3       71     0.000     0.000     0.000     0.000       88        0        0        0        2       28       21     9.413       39     24.7    2.324   -9.900     0.80    0.000    0.000       11        9     2080  Maize_Short_Soroca_22May_Optimum_26_MOHC.PRM
 Tot(101)       22        5     2081     95.8    713.4   1701.4   431.00      0.0     88.3      7.5     10.6      0.0    107.6       23    158.1    158.1       71     0.000     0.000     0.000     0.000       86        0        0        0        1       35       20     7.320       30     20.9    1.527   -9.900     0.59    0.000    0.000       11        9     2081  Maize_Short_Soroca_22May_Optimum_26_MOHC.PRM
 Tot(102)       22        5     2082     54.7    743.8   1704.5   431.00      0.0     54.7      0.0      0.0      0.0     91.7       19    163.5    163.5       70     0.000     0.000     0.000     0.000       86        0        0        0        0       33       21     8.095       33     19.7    1.594   -9.900     0.63    0.000    0.000       11        9     2082  Maize_Short_Soroca_22May_Optimum_26_MOHC.PRM
 Tot(103)       22        5     2083    141.4    638.2   1511.7   430.00      0.0    130.0     11.4     11.2      0.0    133.5       33    167.5    167.5       73     0.000     0.000     0.000     0.000       93        0        0        0        4       33       19     8.257       34     29.1    2.401   -9.900     0.84    0.000    0.000       11        9     2083  Maize_Short_Soroca_22May_Optimum_26_MOHC.PRM
 Tot(104)       22        5     2084    115.0    680.0   1632.9   429.00      0.0    114.9      0.1      0.0      0.0    139.3       35    175.8    175.8       70     0.000     0.000     0.000     0.000       85        0        0        0        3       30       22     8.657       36     21.5    1.865   -9.900     0.61    0.000    0.000       11        9     2084  Maize_Short_Soroca_22May_Optimum_26_MOHC.PRM
 Tot(105)       22        5     2085     81.7    655.3   1618.3   429.00      0.0     81.4      0.3      0.0      0.0    108.4       27    177.0    177.0       76     0.000     0.000     0.000     0.000       90        0        0        0        2       33       19     9.312       38     27.0    2.513   -9.900     0.89    0.000    0.000       11        9     2085  Maize_Short_Soroca_22May_Optimum_26_MOHC.PRM
 Tot(106)       22        5     2086    155.2    621.7   1515.5   428.00      0.0    154.4      0.8      0.0      0.0    119.3       40    237.9    237.8       74     0.000     0.000     0.000     0.000      107        0        0        0        3       17       19    14.004       59     39.5    5.535   -9.900     1.55    0.000    0.000       11        9     2086  Maize_Short_Soroca_22May_Optimum_26_MOHC.PRM
 Tot(107)       22        5     2087    160.7    646.8   1640.1   428.00      0.0    157.8      2.9      0.0      0.0    110.3       31    254.2    253.7       83     0.000     0.000     0.000     0.000      107        0        0        0        1       18       12    15.495       64     40.0    6.203   -9.900     1.70    0.000    0.000       11        9     2087  Maize_Short_Soroca_22May_Optimum_26_MOHC.PRM
 Tot(108)       22        5     2088    234.3    564.3   1427.2   427.00      0.0    214.9     19.4     13.1      0.0    139.2       58    249.0    248.8       78     0.000     0.000     0.000     0.000      107        0        0        0        6       14       13    15.279       65     40.1    6.133   -9.900     1.58    0.000    0.000       11        9     2088  Maize_Short_Soroca_22May_Optimum_26_MOHC.PRM
 Tot(109)       22        5     2089    234.9    568.6   1518.4   427.00      0.0    230.1      4.8      1.4      0.0    171.2       65    272.7    273.3       87     0.000     0.000     0.000     0.000      107        0        0        0        4        8       12    18.347       78     40.1    7.359   -9.900     1.66    0.000    0.000       11        9     2089  Maize_Short_Soroca_22May_Optimum_26_MOHC.PRM
 Tot(110)       22        5     2090    115.9    719.3   1699.5   426.00      0.0    115.9      0.0      0.0      0.0    142.0       29    167.8    168.0       76     0.000     0.000     0.000     0.000       89        0        0        0        1       35       19     8.465       35     26.1    2.207   -9.900     0.73    0.000    0.000       11        9     2090  Maize_Short_Soroca_22May_Optimum_26_MOHC.PRM
 Tot(111)       22        5     2091    224.5    515.9   1396.4   425.00      0.0    218.3      6.2      0.0      0.0    101.6       38    265.5    263.8      100     0.000     0.000     0.000     0.000      107        0        0        0        7       12        0    20.607       90     40.3    8.296   -9.900     2.26    0.000    0.000       11        9     2091  Maize_Short_Soroca_22May_Optimum_26_MOHC.PRM
 Tot(112)       22        5     2092     89.5    605.4   1502.0   425.00      0.0     88.2      1.3      1.5      0.0     96.6       33    209.0    210.7       73     0.000     0.000     0.000     0.000       97        0        0        0        5       16       21    12.531       52     33.2    4.162   -9.900     1.38    0.000    0.000       11        9     2092  Maize_Short_Soroca_22May_Optimum_26_MOHC.PRM
 Tot(113)       22        5     2093    165.9    618.5   1536.2   424.00      0.0    159.3      6.6      0.8      0.0    146.9       43    181.4    181.4       72     0.000     0.000     0.000     0.000       90        0        0        0        2       26       21    10.088       42     26.6    2.687   -9.900     0.90    0.000    0.000       11        9     2093  Maize_Short_Soroca_22May_Optimum_26_MOHC.PRM
 Tot(114)       22        5     2094    198.5    595.6   1452.8   424.00      0.0    156.7     41.8      0.0      0.0    102.9       32    193.7    193.7       73     0.000     0.000     0.000     0.000       95        0        0        0        3       24       21    11.319       48     31.5    3.567   -9.900     1.25    0.000    0.000       11        9     2094  Maize_Short_Soroca_22May_Optimum_26_MOHC.PRM
 Tot(115)       22        5     2095    112.8    695.5   1578.9   423.00      0.0    112.1      0.7      0.0      0.0    113.1       28    177.5    177.5       69     0.000     0.000     0.000     0.000       86        0        0        0        4       29       22     8.743       36     22.5    1.967   -9.900     0.69    0.000    0.000       11        9     2095  Maize_Short_Soroca_22May_Optimum_26_MOHC.PRM
 Tot(116)       22        5     2096    120.0    666.8   1659.8   423.00      0.0    118.6      1.4      0.0      0.0    139.4       31    174.0    174.0       78     0.000     0.000     0.000     0.000       97        0        0        0        1       34       17     9.767       40     34.4    3.356   -9.900     1.12    0.000    0.000       11        9     2096  Maize_Short_Soroca_22May_Optimum_26_MOHC.PRM
 Tot(117)       22        5     2097    156.8    569.5   1525.5   422.00      0.0    150.4      6.4     18.0      0.0    114.7       46    241.2    241.2       77     0.000     0.000     0.000     0.000      104        0        0        0        4       10       20    14.908       61     38.8    5.783   -9.900     1.63    0.000    0.000       11        9     2097  Maize_Short_Soroca_22May_Optimum_26_MOHC.PRM
 Tot(118)       22        5     2098     78.8    616.8   1424.8   422.00      0.0     78.0      0.8      3.1      0.0     97.2       28    196.7    196.7       74     0.000     0.000     0.000     0.000      101        0        0        0        4       24       21    12.019       50     37.2    4.470   -9.900     1.56    0.000    0.000       11        9     2098  Maize_Short_Soroca_22May_Optimum_26_MOHC.PRM
 Tot(119)       22        5     2099     47.7    788.6   1685.3   421.00      0.0     47.7      0.0      0.0      0.0     85.0       14    146.0    146.0       77     0.000     0.000     0.000     0.000       86        0        0        0        3       41       18     6.278       26     22.1    1.389   -9.900     0.62    0.000    0.000       11        9     2099  Maize_Short_Soroca_22May_Optimum_26_MOHC.PRM
