AquaCrop 7.0 (August 2022) - Output created on (date) : 23-11-2022   at (time) : 13:24:32

    RunNr     Day1   Month1    Year1     Rain      ETo       GD     CO2      Irri   Infilt   Runoff    Drain   Upflow        E     E/Ex       Tr      TrW   Tr/Trx    SaltIn   SaltOut    SaltUp  SaltProf     Cycle   SaltStr  FertStr  WeedStr  TempStr   ExpStr   StoStr  BioMass  Brelative   HI    Y(dry)  Y(fresh)    WPet      Bin     Bout     DayN   MonthN    YearN
                                           mm       mm  degC.day    ppm        mm       mm       mm       mm       mm       mm        %       mm       mm        %    ton/ha    ton/ha    ton/ha    ton/ha      days       %        %        %        %        %        %    ton/ha        %       %    ton/ha   ton/ha    kg/m3   ton/ha   ton/ha
   Tot(1)        6        6     1981    199.9    451.3   1202.5   340.11      0.0    168.9     31.0      0.0      0.0     98.0       45    218.0    216.5       95     0.000     0.000     0.000     0.000      107        0        0        0       17       16        2    16.753       89     40.8    6.841   -9.900     2.16    0.000    0.000       26        9     1981  Maize_short_Chisinau_6June_Optimum_26_MPI.PRM
   Tot(2)        6        6     1982    192.1    427.5   1217.6   341.22      0.0    191.6      0.5      0.0      0.0    140.8       75    245.0    245.9       99     0.000     0.000     0.000     0.000      107        0        0        0       10        1        1    20.939       96     40.1    8.397   -9.900     2.18    0.000    0.000       26        9     1982  Maize_short_Chisinau_6June_Optimum_26_MPI.PRM
   Tot(3)        6        6     1983    262.8    443.0   1188.8   342.84      0.0    240.7     22.1     39.3      0.0    123.0       64    240.7    240.9      100     0.000     0.000     0.000     0.000      107        0        0        0       12        2        0    19.837       97     40.0    7.937   -9.900     2.18    0.000    0.000       26        9     1983  Maize_short_Chisinau_6June_Optimum_26_MPI.PRM
   Tot(4)        6        6     1984    184.6    423.3   1101.0   344.40      0.0    181.4      3.2      7.2      0.0    136.9       71    220.8    219.5       99     0.000     0.000     0.000     0.000      107        0        0        0       16        6        1    19.436       95     40.3    7.833   -9.900     2.19    0.000    0.000       26        9     1984  Maize_short_Chisinau_6June_Optimum_26_MPI.PRM
   Tot(5)        6        6     1985    281.0    437.5   1120.2   345.87      0.0    247.3     33.7     63.0      0.0    137.1       76    236.2    237.8       97     0.000     0.000     0.000     0.000      107        0        0        0       20        4        2    17.913       94     40.2    7.201   -9.900     1.93    0.000    0.000       26        9     1985  Maize_short_Chisinau_6June_Optimum_26_MPI.PRM
   Tot(6)        6        6     1986    165.0    499.0   1263.3   347.19      0.0    162.3      2.7      5.9      0.0    118.1       52    247.8    247.9       93     0.000     0.000     0.000     0.000      107        0        0        0       13        7        8    17.670       87     40.2    7.106   -9.900     1.94    0.000    0.000       26        9     1986  Maize_short_Chisinau_6June_Optimum_26_MPI.PRM
   Tot(7)        6        6     1987    220.8    477.8   1198.4   348.98      0.0    212.1      8.7     13.2      0.0    114.5       50    234.2    232.2      100     0.000     0.000     0.000     0.000      107        0        0        0       15        5        0    18.307       96     40.2    7.355   -9.900     2.11    0.000    0.000       26        9     1987  Maize_short_Chisinau_6June_Optimum_26_MPI.PRM
   Tot(8)        6        6     1988    230.8    451.7   1243.1   351.45      0.0    200.8     30.0      1.9      0.0    101.3       48    241.5    242.3       99     0.000     0.000     0.000     0.000      107        0        0        0       14        9        0    18.896       94     40.5    7.652   -9.900     2.23    0.000    0.000       26        9     1988  Maize_short_Chisinau_6June_Optimum_26_MPI.PRM
   Tot(9)        6        6     1989    317.2    425.1   1179.8   352.89      0.0    284.4     32.8     13.0      0.0    118.7       59    221.5    221.3      100     0.000     0.000     0.000     0.000      107        0        0        0       14        2        0    19.137       97     40.1    7.667   -9.900     2.25    0.000    0.000       26        9     1989  Maize_short_Chisinau_6June_Optimum_26_MPI.PRM
  Tot(10)        6        6     1990    132.3    476.7   1149.2   354.16      0.0    130.1      2.2      3.3      0.0    118.7       50    204.5    205.5       91     0.000     0.000     0.000     0.000      107        0        0        0       17       14       10    14.985       80     40.5    6.063   -9.900     1.88    0.000    0.000       26        9     1990  Maize_short_Chisinau_6June_Optimum_26_MPI.PRM
  Tot(11)        6        6     1991    275.4    418.6   1253.8   355.48      0.0    261.5     13.9     18.7      0.0    129.6       66    218.7    217.2      100     0.000     0.000     0.000     0.000      107        0        0        0       11        1        0    19.676       97     40.0    7.874   -9.900     2.26    0.000    0.000       26        9     1991  Maize_short_Chisinau_6June_Optimum_26_MPI.PRM
  Tot(12)        6        6     1992    150.7    509.8   1276.3   356.27      0.0    145.6      5.1     13.2      0.0    120.0       50    218.1    220.0       83     0.000     0.000     0.000     0.000      107        0        0        0       13       19       15    14.195       70     40.5    5.749   -9.900     1.70    0.000    0.000       26        9     1992  Maize_short_Chisinau_6June_Optimum_26_MPI.PRM
  Tot(13)        6        6     1993    182.1    473.1   1085.2   356.95      0.0    180.2      1.9      0.0      0.0    113.6       50    223.8    222.4       97     0.000     0.000     0.000     0.000      107        0        0        0       21       12        1    16.839       91     40.6    6.833   -9.900     2.03    0.000    0.000       26        9     1993  Maize_short_Chisinau_6June_Optimum_26_MPI.PRM
  Tot(14)        6        6     1994    231.2    503.3   1362.6   358.63      0.0    182.4     48.8     16.1      0.0     83.3       33    262.5    262.3       97     0.000     0.000     0.000     0.000      107        0        0        0        4       21        2    19.799       86     40.9    8.101   -9.900     2.34    0.000    0.000       26        9     1994  Maize_short_Chisinau_6June_Optimum_26_MPI.PRM
  Tot(15)        6        6     1995    234.6    464.0   1267.5   360.62      0.0    221.2     13.4      0.0      0.0    105.9       47    237.4    238.7      100     0.000     0.000     0.000     0.000      107        0        0        0       12        6        0    19.159       95     40.3    7.720   -9.900     2.25    0.000    0.000       26        9     1995  Maize_short_Chisinau_6June_Optimum_26_MPI.PRM
  Tot(16)        6        6     1996    265.4    465.3   1136.8   362.37      0.0    227.9     37.5      0.0      0.0     93.6       35    193.4    193.4       99     0.000     0.000     0.000     0.000      107        0        0        0       23       17        0    15.741       90     40.7    6.410   -9.900     2.23    0.000    0.000       26        9     1996  Maize_short_Chisinau_6June_Optimum_26_MPI.PRM
  Tot(17)        6        6     1997    315.0    407.4   1143.8   363.47      0.0    294.3     20.7      7.2      0.0    131.8       67    192.3    192.5      100     0.000     0.000     0.000     0.000      107        0        0        0       17        1        0    18.210       97     40.0    7.285   -9.900     2.25    0.000    0.000       26        9     1997  Maize_short_Chisinau_6June_Optimum_26_MPI.PRM
  Tot(18)        6        6     1998    223.6    463.9   1226.6   366.50      0.0    217.1      6.5      0.0      0.0    129.6       63    237.8    236.7       97     0.000     0.000     0.000     0.000      107        0        0        0       16        9        2    17.817       91     40.6    7.225   -9.900     1.97    0.000    0.000       26        9     1998  Maize_short_Chisinau_6June_Optimum_26_MPI.PRM
  Tot(19)        6        6     1999    153.2    491.5   1394.7   368.14      0.0    151.2      2.0      1.9      0.0    114.9       46    237.4    237.1       95     0.000     0.000     0.000     0.000      107        0        0        0        7       15        5    18.736       87     40.5    7.587   -9.900     2.15    0.000    0.000       26        9     1999  Maize_short_Chisinau_6June_Optimum_26_MPI.PRM
  Tot(20)        6        6     2000    210.5    500.1   1200.6   369.41      0.0    203.8      6.7      0.0      0.0     93.1       37    248.7    250.0       99     0.000     0.000     0.000     0.000      107        0        0        0       18        7        0    18.453       94     40.3    7.441   -9.900     2.18    0.000    0.000       26        9     2000  Maize_short_Chisinau_6June_Optimum_26_MPI.PRM
  Tot(21)        6        6     2001    206.9    490.4   1341.7   371.07      0.0    193.1     13.8      1.1      0.0    112.9       49    231.8    231.9       89     0.000     0.000     0.000     0.000      107        0        0        0        9       17        7    16.781       77     40.7    6.825   -9.900     1.98    0.000    0.000       26        9     2001  Maize_short_Chisinau_6June_Optimum_26_MPI.PRM
  Tot(22)        6        6     2002    290.9    484.3   1361.3   373.16      0.0    261.3     29.6     17.0      0.0     92.9       37    246.0    245.3      100     0.000     0.000     0.000     0.000      107        0        0        0        8        4        0    20.259       94     40.0    8.104   -9.900     2.39    0.000    0.000       26        9     2002  Maize_short_Chisinau_6June_Optimum_26_MPI.PRM
  Tot(23)        6        6     2003    217.4    513.0   1265.0   375.80      0.0    213.7      3.7      0.0      0.0    117.9       48    262.4    263.0      100     0.000     0.000     0.000     0.000      107        0        0        0       13        3        0    19.668       96     40.1    7.890   -9.900     2.07    0.000    0.000       26        9     2003  Maize_short_Chisinau_6June_Optimum_26_MPI.PRM
  Tot(24)        6        6     2004    185.9    481.7   1215.0   377.49      0.0    178.0      7.9     18.8      0.0     87.9       36    237.4    236.7      100     0.000     0.000     0.000     0.000      107        0        0        0       12        5        0    19.468       95     40.2    7.826   -9.900     2.41    0.000    0.000       26        9     2004  Maize_short_Chisinau_6June_Optimum_26_MPI.PRM
  Tot(25)        6        6     2005    243.9    464.2   1283.3   379.80      0.0    230.6     13.3     16.9      0.0    122.7       58    259.9    258.2      100     0.000     0.000     0.000     0.000      107        0        0        0        7        7        0    21.269       96     40.2    8.552   -9.900     2.24    0.000    0.000       26        9     2005  Maize_short_Chisinau_6June_Optimum_26_MPI.PRM
  Tot(26)        6        6     2006    224.5    508.3   1271.8   381.90      0.0    219.8      4.7      9.9      0.0    115.6       47    268.5    268.6      100     0.000     0.000     0.000     0.000      107        0        0        0        9        9        0    20.372       94     40.3    8.203   -9.900     2.14    0.000    0.000       26        9     2006  Maize_short_Chisinau_6June_Optimum_26_MPI.PRM
  Tot(27)        6        6     2007    158.6    581.7   1358.0   383.77      0.0    158.1      0.5      0.0      0.0    110.8       32    235.1    236.1       95     0.000     0.000     0.000     0.000      107        0        0        0       11       21        3    16.215       78     40.3    6.528   -9.900     1.89    0.000    0.000       26        9     2007  Maize_short_Chisinau_6June_Optimum_26_MPI.PRM
  Tot(28)        6        6     2008    239.5    514.8   1289.7   385.59      0.0    227.2     12.3      4.8      0.0    119.9       47    250.8    251.9       94     0.000     0.000     0.000     0.000      107        0        0        0       14        6        4    17.536       88     40.2    7.042   -9.900     1.90    0.000    0.000       26        9     2008  Maize_short_Chisinau_6June_Optimum_26_MPI.PRM
  Tot(29)        6        6     2009    175.7    556.7   1379.5   387.37      0.0    173.5      2.2      0.0      0.0    116.2       42    265.1    265.0       91     0.000     0.000     0.000     0.000      107        0        0        0        6       10        8    18.442       82     40.2    7.414   -9.900     1.94    0.000    0.000       26        9     2009  Maize_short_Chisinau_6June_Optimum_26_MPI.PRM
  Tot(30)        6        6     2010    248.7    490.7   1382.9   389.85      0.0    230.1     18.6     30.3      0.0    125.5       55    241.0    240.1       91     0.000     0.000     0.000     0.000      107        0        0        0       11       12        5    17.993       85     40.6    7.310   -9.900     1.99    0.000    0.000       26        9     2010  Maize_short_Chisinau_6June_Optimum_26_MPI.PRM
  Tot(31)        6        6     2011    205.0    522.5   1358.5   391.63      0.0    185.1     19.9     29.8      0.0    141.0       56    230.2    231.6       84     0.000     0.000     0.000     0.000      107        0        0        0        7       11       16    16.036       69     40.0    6.408   -9.900     1.73    0.000    0.000       26        9     2011  Maize_short_Chisinau_6June_Optimum_26_MPI.PRM
  Tot(32)        6        6     2012    146.0    597.2   1443.1   393.82      0.0    144.1      1.9      3.1      0.0     98.3       30    244.6    243.4       88     0.000     0.000     0.000     0.000      107        0        0        0        5       21       11    15.618       69     40.2    6.283   -9.900     1.83    0.000    0.000       26        9     2012  Maize_short_Chisinau_6June_Optimum_26_MPI.PRM
  Tot(33)        6        6     2013    345.4    493.2   1303.2   396.48      0.0    292.7     52.7     37.3      0.0    119.6       50    240.9    241.8       97     0.000     0.000     0.000     0.000      107        0        0        0       12       10        2    18.524       90     40.5    7.501   -9.900     2.08    0.000    0.000       26        9     2013  Maize_short_Chisinau_6June_Optimum_26_MPI.PRM
  Tot(34)        6        6     2014    170.9    550.3   1350.4   398.55      0.0    169.2      1.7      0.0      0.0    105.2       42    270.6    270.9       89     0.000     0.000     0.000     0.000      107        0        0        0        9       10       10    18.044       82     40.2    7.252   -9.900     1.93    0.000    0.000       26        9     2014  Maize_short_Chisinau_6June_Optimum_26_MPI.PRM
  Tot(35)        6        6     2015    125.4    579.0   1437.4   401.00      0.0    124.8      0.6      0.0      0.0    129.4       40    205.3    205.3       81     0.000     0.000     0.000     0.000      102        0        0        0        5       24       18    12.722       55     39.3    5.003   -9.900     1.51    0.000    0.000       26        9     2015  Maize_short_Chisinau_6June_Optimum_26_MPI.PRM
  Tot(36)        6        6     2016    160.2    553.8   1415.3   403.00      0.0    154.0      6.2     12.5      0.0    129.1       43    213.2    213.1       82     0.000     0.000     0.000     0.000      107        0        0        0        8       21       15    14.001       63     40.2    5.624   -9.900     1.64    0.000    0.000       26        9     2016  Maize_short_Chisinau_6June_Optimum_26_MPI.PRM
  Tot(37)        6        6     2017    253.3    534.3   1396.1   405.00      0.0    233.1     20.2     24.7      0.0    138.7       57    279.8    279.4       93     0.000     0.000     0.000     0.000      107        0        0        0        6        4        7    19.825       87     39.9    7.919   -9.900     1.89    0.000    0.000       26        9     2017  Maize_short_Chisinau_6June_Optimum_26_MPI.PRM
  Tot(38)        6        6     2018    286.1    507.8   1446.5   408.00      0.0    269.1     17.0     27.6      0.0    155.4       69    278.6    279.2       94     0.000     0.000     0.000     0.000      107        0        0        0        6        2        4    20.835       90     40.1    8.349   -9.900     1.92    0.000    0.000       26        9     2018  Maize_short_Chisinau_6June_Optimum_26_MPI.PRM
  Tot(39)        6        6     2019    156.4    558.4   1419.7   410.00      0.0    153.3      3.1      1.1      0.0    117.3       42    245.5    245.4       86     0.000     0.000     0.000     0.000      107        0        0        0        7        9       15    16.683       74     39.7    6.616   -9.900     1.82    0.000    0.000       26        9     2019  Maize_short_Chisinau_6June_Optimum_26_MPI.PRM
  Tot(40)        6        6     2020    231.7    427.4   1095.9   412.00      0.0    204.8     26.9     24.0      0.0    117.1       58    203.6    203.4      100     0.000     0.000     0.000     0.000      107        0        0        0       22       16        0    16.979       93     40.5    6.883   -9.900     2.15    0.000    0.000       26        9     2020  Maize_short_Chisinau_6June_Optimum_26_MPI.PRM
  Tot(41)        6        6     2021    175.5    449.9   1124.8   414.00      0.0    172.6      2.9      0.0      0.0     67.2       30    224.6    224.9      100     0.000     0.000     0.000     0.000      107        0        0        0       16        4        0    19.624       95     40.0    7.855   -9.900     2.69    0.000    0.000       26        9     2021  Maize_short_Chisinau_6June_Optimum_26_MPI.PRM
  Tot(42)        6        6     2022    146.4    462.0   1128.0   417.00      0.0    144.1      2.3      8.1      0.0    107.1       53    227.4    226.8       94     0.000     0.000     0.000     0.000      107        0        0        0       18       19        5    17.024       85     40.8    6.942   -9.900     2.08    0.000    0.000       26        9     2022  Maize_short_Chisinau_6June_Optimum_26_MPI.PRM
  Tot(43)        6        6     2023    163.1    541.6   1262.5   419.00      0.0    159.6      3.5      0.0      0.0    104.1       36    227.3    226.8       91     0.000     0.000     0.000     0.000      107        0        0        0       12       17        6    16.610       79     40.4    6.713   -9.900     2.03    0.000    0.000       26        9     2023  Maize_short_Chisinau_6June_Optimum_26_MPI.PRM
  Tot(44)        6        6     2024    124.3    485.6   1174.3   421.00      0.0    124.3      0.0      0.0      0.0    101.7       44    233.0    233.5       92     0.000     0.000     0.000     0.000      107        0        0        0       14       15        8    17.977       82     40.5    7.283   -9.900     2.18    0.000    0.000       26        9     2024  Maize_short_Chisinau_6June_Optimum_26_MPI.PRM
  Tot(45)        6        6     2025    221.0    467.1   1180.1   423.00      0.0    211.7      9.3      0.0      0.0     78.1       30    201.3    201.6      100     0.000     0.000     0.000     0.000      107        0        0        0       16        5        0    18.431       94     40.2    7.401   -9.900     2.65    0.000    0.000       26        9     2025  Maize_short_Chisinau_6June_Optimum_26_MPI.PRM
  Tot(46)        6        6     2026    152.2    510.8   1166.0   424.00      0.0    147.1      5.1      0.0      0.0    102.6       40    220.9    221.2       91     0.000     0.000     0.000     0.000      107        0        0        0       16       10        6    16.458       82     40.2    6.613   -9.900     2.04    0.000    0.000       26        9     2026  Maize_short_Chisinau_6June_Optimum_26_MPI.PRM
  Tot(47)        6        6     2027    179.6    422.3   1091.6   426.00      0.0    176.4      3.2      8.0      0.0    102.5       55    223.2    222.3      100     0.000     0.000     0.000     0.000      107        0        0        0       19        3        0    19.927       97     40.1    7.999   -9.900     2.46    0.000    0.000       26        9     2027  Maize_short_Chisinau_6June_Optimum_26_MPI.PRM
  Tot(48)        6        6     2028    252.8    405.2   1035.5   428.00      0.0    232.7     20.1     44.4      0.0    106.6       57    199.9    199.6      100     0.000     0.000     0.000     0.000      107        0        0        0       20        1        0    19.509       97     40.0    7.804   -9.900     2.55    0.000    0.000       26        9     2028  Maize_short_Chisinau_6June_Optimum_26_MPI.PRM
  Tot(49)        6        6     2029    164.2    426.2   1027.0   429.00      0.0    155.9      8.3     17.0      0.0     97.9       52    204.5    205.5       96     0.000     0.000     0.000     0.000      107        0        0        0       23       11        3    16.977       91     40.6    6.893   -9.900     2.28    0.000    0.000       26        9     2029  Maize_short_Chisinau_6June_Optimum_26_MPI.PRM
  Tot(50)        6        6     2030    152.2    512.3   1152.3   431.00      0.0    147.4      4.8     17.0      0.0    127.9       52    200.4    200.4       82     0.000     0.000     0.000     0.000      107        0        0        0       19       20       13    13.100       65     40.4    5.295   -9.900     1.61    0.000    0.000       26        9     2030  Maize_short_Chisinau_6June_Optimum_26_MPI.PRM
  Tot(51)        6        6     2031    170.3    446.8   1111.1   432.00      0.0    169.9      0.4      0.0      0.0     91.0       40    196.4    196.3      100     0.000     0.000     0.000     0.000      107        0        0        0       20        3        0    17.488       95     40.0    7.003   -9.900     2.44    0.000    0.000       26        9     2031  Maize_short_Chisinau_6June_Optimum_26_MPI.PRM
  Tot(52)        6        6     2032    226.3    455.4   1057.4   433.00      0.0    180.0     46.3     41.1      0.0    110.5       56    217.2    217.4       97     0.000     0.000     0.000     0.000      107        0        0        0       22        8        4    16.643       93     40.3    6.706   -9.900     2.05    0.000    0.000       26        9     2032  Maize_short_Chisinau_6June_Optimum_26_MPI.PRM
  Tot(53)        6        6     2033    189.3    432.9   1023.2   435.00      0.0    183.9      5.4      7.2      0.0     96.7       54    221.7    221.6      100     0.000     0.000     0.000     0.000      107        0        0        0       21        1        0    18.454       97     40.0    7.389   -9.900     2.32    0.000    0.000       26        9     2033  Maize_short_Chisinau_6June_Optimum_26_MPI.PRM
  Tot(54)        6        6     2034    194.2    476.8   1212.0   436.00      0.0    191.7      2.5      0.8      0.0    119.1       50    229.7    227.5       99     0.000     0.000     0.000     0.000      107        0        0        0       15       16        0    18.805       92     40.8    7.664   -9.900     2.20    0.000    0.000       26        9     2034  Maize_short_Chisinau_6June_Optimum_26_MPI.PRM
  Tot(55)        6        6     2035    249.5    483.4   1155.9   437.00      0.0    203.7     45.8      7.5      0.0    101.7       45    237.1    238.3       94     0.000     0.000     0.000     0.000      107        0        0        0       15        8        3    18.442       88     40.4    7.442   -9.900     2.20    0.000    0.000       26        9     2035  Maize_short_Chisinau_6June_Optimum_26_MPI.PRM
  Tot(56)        6        6     2036    185.0    440.2   1107.9   438.00      0.0    183.4      1.6      0.8      0.0    108.6       53    219.8    220.5      100     0.000     0.000     0.000     0.000      107        0        0        0       18        3        0    19.449       96     40.1    7.799   -9.900     2.38    0.000    0.000       26        9     2036  Maize_short_Chisinau_6June_Optimum_26_MPI.PRM
  Tot(57)        6        6     2037    239.8    415.7   1098.9   438.00      0.0    218.5     21.3     16.2      0.0     90.9       46    213.6    213.5      100     0.000     0.000     0.000     0.000      107        0        0        0       17        2        0    20.710       97     40.0    8.291   -9.900     2.72    0.000    0.000       26        9     2037  Maize_short_Chisinau_6June_Optimum_26_MPI.PRM
  Tot(58)        6        6     2038    157.8    429.4   1100.9   439.00      0.0    156.1      1.7      0.0      0.0     70.7       36    209.1    209.5      100     0.000     0.000     0.000     0.000      107        0        0        0       19        3        0    18.404       96     40.1    7.380   -9.900     2.64    0.000    0.000       26        9     2038  Maize_short_Chisinau_6June_Optimum_26_MPI.PRM
  Tot(59)        6        6     2039    162.3    536.6   1197.6   440.00      0.0    151.8     10.5      0.0      0.0     87.3       29    237.0    236.4      100     0.000     0.000     0.000     0.000      107        0        0        0       13       22        0    18.125       85     40.6    7.363   -9.900     2.27    0.000    0.000       26        9     2039  Maize_short_Chisinau_6June_Optimum_26_MPI.PRM
  Tot(60)        6        6     2040    136.8    505.3   1183.7   440.00      0.0    136.6      0.2      0.0      0.0    101.5       43    237.1    237.6       89     0.000     0.000     0.000     0.000      107        0        0        0       12       11        9    17.937       82     40.2    7.218   -9.900     2.13    0.000    0.000       26        9     2040  Maize_short_Chisinau_6June_Optimum_26_MPI.PRM
  Tot(61)        6        6     2041    204.7    533.1   1174.1   441.00      0.0    186.0     18.7      9.9      0.0    119.3       41    190.9    190.4       81     0.000     0.000     0.000     0.000      107        0        0        0       17       28       10    12.299       61     40.6    4.996   -9.900     1.61    0.000    0.000       26        9     2041  Maize_short_Chisinau_6June_Optimum_26_MPI.PRM
  Tot(62)        6        6     2042    250.9    415.2   1070.0   441.00      0.0    224.8     26.1      3.5      0.0     99.8       49    190.6    190.5      100     0.000     0.000     0.000     0.000      107        0        0        0       18        2        0    19.114       97     40.1    7.658   -9.900     2.64    0.000    0.000       26        9     2042  Maize_short_Chisinau_6June_Optimum_26_MPI.PRM
  Tot(63)        6        6     2043    139.3    440.1   1018.7   441.00      0.0    137.8      1.5      0.0      0.0    115.2       57    195.9    196.1       90     0.000     0.000     0.000     0.000      107        0        0        0       25       16        7    15.447       82     40.6    6.269   -9.900     2.01    0.000    0.000       26        9     2043  Maize_short_Chisinau_6June_Optimum_26_MPI.PRM
  Tot(64)        6        6     2044    266.2    387.9   1019.2   442.00      0.0    251.9     14.3     28.1      0.0    101.6       53    169.3    169.5      100     0.000     0.000     0.000     0.000      107        0        0        0       26        2        0    17.388       97     40.0    6.956   -9.900     2.57    0.000    0.000       26        9     2044  Maize_short_Chisinau_6June_Optimum_26_MPI.PRM
  Tot(65)        6        6     2045    244.6    423.9   1174.6   442.00      0.0    220.0     24.6     47.8      0.0     84.1       43    221.6    220.3      100     0.000     0.000     0.000     0.000      107        0        0        0       13        2        0    20.874       96     40.0    8.355   -9.900     2.73    0.000    0.000       26        9     2045  Maize_short_Chisinau_6June_Optimum_26_MPI.PRM
  Tot(66)        6        6     2046    115.5    425.6   1127.3   442.00      0.0    115.5      0.0      0.0      0.0     72.4       36    203.8    205.0      100     0.000     0.000     0.000     0.000      107        0        0        0       17        8        0    18.709       94     40.3    7.544   -9.900     2.73    0.000    0.000       26        9     2046  Maize_short_Chisinau_6June_Optimum_26_MPI.PRM
  Tot(67)        6        6     2047    321.7    431.2   1173.1   442.00      0.0    283.4     38.3     55.4      0.0    105.7       56    241.7    242.1      100     0.000     0.000     0.000     0.000      107        0        0        0       13        1        0    21.452       97     40.0    8.592   -9.900     2.47    0.000    0.000       26        9     2047  Maize_short_Chisinau_6June_Optimum_26_MPI.PRM
  Tot(68)        6        6     2048    178.8    443.5   1184.8   442.00      0.0    161.0     17.8      0.0      0.0     86.1       41    227.7    226.3      100     0.000     0.000     0.000     0.000      107        0        0        0       12        2        0    21.252       96     40.0    8.502   -9.900     2.71    0.000    0.000       26        9     2048  Maize_short_Chisinau_6June_Optimum_26_MPI.PRM
  Tot(69)        6        6     2049    102.9    530.3   1158.2   443.00      0.0    101.5      1.4      0.0      0.0     85.5       32    215.7    216.8       87     0.000     0.000     0.000     0.000      107        0        0        0       17       18       11    15.034       74     40.6    6.098   -9.900     2.03    0.000    0.000       26        9     2049  Maize_short_Chisinau_6June_Optimum_26_MPI.PRM
  Tot(70)        6        6     2050    281.3    432.9   1058.1   443.00      0.0    254.2     27.1     44.4      0.0    116.8       56    197.9    198.3      100     0.000     0.000     0.000     0.000      107        0        0        0       22        2        0    17.755       97     40.0    7.110   -9.900     2.26    0.000    0.000       26        9     2050  Maize_short_Chisinau_6June_Optimum_26_MPI.PRM
  Tot(71)        6        6     2051    147.9    457.0   1120.2   443.00      0.0    147.4      0.5      2.1      0.0    111.3       52    227.0    227.1       97     0.000     0.000     0.000     0.000      107        0        0        0       13        7        4    19.326       91     40.2    7.775   -9.900     2.30    0.000    0.000       26        9     2051  Maize_short_Chisinau_6June_Optimum_26_MPI.PRM
  Tot(72)        6        6     2052    208.5    431.0   1093.7   443.00      0.0    199.5      9.0      0.0      0.0     97.6       42    174.2    173.2      100     0.000     0.000     0.000     0.000      107        0        0        0       21        5        0    17.320       94     40.0    6.929   -9.900     2.55    0.000    0.000       26        9     2052  Maize_short_Chisinau_6June_Optimum_26_MPI.PRM
  Tot(73)        6        6     2053    119.3    483.1   1158.8   443.00      0.0    118.9      0.4      0.0      0.0     80.4       39    241.3    241.4       95     0.000     0.000     0.000     0.000      107        0        0        0       17        5        4    18.706       90     40.3    7.530   -9.900     2.34    0.000    0.000       26        9     2053  Maize_short_Chisinau_6June_Optimum_26_MPI.PRM
  Tot(74)        6        6     2054    263.8    459.6   1133.2   443.00      0.0    227.4     36.4      0.0      0.0     86.4       41    244.8    245.8      100     0.000     0.000     0.000     0.000      107        0        0        0       17        4        0    20.058       96     40.1    8.045   -9.900     2.43    0.000    0.000       26        9     2054  Maize_short_Chisinau_6June_Optimum_26_MPI.PRM
  Tot(75)        6        6     2055    117.7    510.7   1243.5   443.00      0.0    117.4      0.3      0.0      0.0     96.5       38    231.7    231.1       92     0.000     0.000     0.000     0.000      107        0        0        0       12       14        8    17.818       82     40.5    7.215   -9.900     2.20    0.000    0.000       26        9     2055  Maize_short_Chisinau_6June_Optimum_26_MPI.PRM
  Tot(76)        6        6     2056     66.5    526.2   1206.5   442.00      0.0     66.3      0.2      0.0      0.0     82.7       30    199.6    200.2       81     0.000     0.000     0.000     0.000      105        0        0        0       11       17       17    14.296       65     39.8    5.684   -9.900     2.01    0.000    0.000       26        9     2056  Maize_short_Chisinau_6June_Optimum_26_MPI.PRM
  Tot(77)        6        6     2057    106.3    502.0   1250.2   442.00      0.0    105.9      0.4      0.0      0.0     74.4       33    240.5    239.4       88     0.000     0.000     0.000     0.000      107        0        0        0       11       10        8    18.128       80     40.1    7.269   -9.900     2.31    0.000    0.000       26        9     2057  Maize_short_Chisinau_6June_Optimum_26_MPI.PRM
  Tot(78)        6        6     2058    180.5    515.2   1197.1   442.00      0.0    173.4      7.1      0.0      0.0     85.1       29    216.2    217.2      100     0.000     0.000     0.000     0.000      107        0        0        0       19       13        0    16.915       91     40.6    6.865   -9.900     2.28    0.000    0.000       26        9     2058  Maize_short_Chisinau_6June_Optimum_26_MPI.PRM
  Tot(79)        6        6     2059    237.7    452.1   1180.3   442.00      0.0    172.6     65.1      0.0      0.0     75.3       31    200.6    200.0      100     0.000     0.000     0.000     0.000      107        0        0        0       17       14        0    17.814       92     40.6    7.239   -9.900     2.62    0.000    0.000       26        9     2059  Maize_short_Chisinau_6June_Optimum_26_MPI.PRM
  Tot(80)        6        6     2060     62.4    495.1   1254.6   442.00      0.0     62.4      0.0      0.0      0.0     63.0       26    201.2    201.6       81     0.000     0.000     0.000     0.000      107        0        0        0       13       22       14    14.182       64     40.3    5.720   -9.900     2.16    0.000    0.000       26        9     2060  Maize_short_Chisinau_6June_Optimum_26_MPI.PRM
  Tot(81)        6        6     2061    176.5    489.4   1241.6   441.00      0.0    172.5      4.0      0.0      0.0     88.9       36    243.5    243.8       98     0.000     0.000     0.000     0.000      107        0        0        0       12        5        1    19.891       92     40.1    7.977   -9.900     2.40    0.000    0.000       26        9     2061  Maize_short_Chisinau_6June_Optimum_26_MPI.PRM
  Tot(82)        6        6     2062    160.0    390.5    944.7   441.00      0.0    157.8      2.2      2.9      0.0     98.8       60    188.6    188.0      100     0.000     0.000     0.000     0.000      107        0        0        0       27        1        0    17.297       97     40.0    6.922   -9.900     2.41    0.000    0.000       26        9     2062  Maize_short_Chisinau_6June_Optimum_26_MPI.PRM
  Tot(83)        6        6     2063    201.5    504.3   1229.0   441.00      0.0    174.1     27.4     12.8      0.0     86.7       31    226.4    224.5      100     0.000     0.000     0.000     0.000      107        0        0        0       13       15        0    18.574       89     40.5    7.523   -9.900     2.40    0.000    0.000       26        9     2063  Maize_short_Chisinau_6June_Optimum_26_MPI.PRM
  Tot(84)        6        6     2064    156.7    495.1   1195.4   440.00      0.0    153.3      3.4      2.4      0.0     93.4       37    221.1    223.6       94     0.000     0.000     0.000     0.000      107        0        0        0       16       18        6    17.844       84     40.6    7.252   -9.900     2.31    0.000    0.000       26        9     2064  Maize_short_Chisinau_6June_Optimum_26_MPI.PRM
  Tot(85)        6        6     2065    190.4    383.7   1057.7   440.00      0.0    182.2      8.2     11.1      0.0     91.4       51    195.6    195.6      100     0.000     0.000     0.000     0.000      107        0        0        0       21        1        0    19.789       97     40.1    7.928   -9.900     2.76    0.000    0.000       26        9     2065  Maize_short_Chisinau_6June_Optimum_26_MPI.PRM
  Tot(86)        6        6     2066    233.4    435.5   1048.4   440.00      0.0    221.4     12.0      0.0      0.0     98.3       48    209.3    209.2      100     0.000     0.000     0.000     0.000      107        0        0        0       21        1        0    18.308       97     40.1    7.333   -9.900     2.38    0.000    0.000       26        9     2066  Maize_short_Chisinau_6June_Optimum_26_MPI.PRM
  Tot(87)        6        6     2067    249.8    369.4    934.3   439.00      0.0    232.8     17.0     21.3      0.0    104.0       62    169.6    169.7      100     0.000     0.000     0.000     0.000      107        0        0        0       26        1        0    17.630       98     40.0    7.053   -9.900     2.58    0.000    0.000       26        9     2067  Maize_short_Chisinau_6June_Optimum_26_MPI.PRM
  Tot(88)        6        6     2068    202.5    425.4   1033.4   439.00      0.0    163.6     38.9      0.0      0.0     82.1       42    198.5    195.6      100     0.000     0.000     0.000     0.000      107        0        0        0       25        4        0    16.905       96     40.1    6.772   -9.900     2.41    0.000    0.000       26        9     2068  Maize_short_Chisinau_6June_Optimum_26_MPI.PRM
  Tot(89)        6        6     2069    260.0    441.1   1211.5   438.00      0.0    255.3      4.7      5.4      0.0    129.4       61    225.0    227.9      100     0.000     0.000     0.000     0.000      107        0        0        0       14        1        0    20.108       97     40.0    8.050   -9.900     2.27    0.000    0.000       26        9     2069  Maize_short_Chisinau_6June_Optimum_26_MPI.PRM
  Tot(90)        6        6     2070    143.0    475.3   1142.0   437.00      0.0    141.6      1.4      0.2      0.0     74.9       28    188.7    187.4      100     0.000     0.000     0.000     0.000      107        0        0        0       20        9        0    16.701       91     40.1    6.705   -9.900     2.54    0.000    0.000       26        9     2070  Maize_short_Chisinau_6June_Optimum_26_MPI.PRM
  Tot(91)        6        6     2071    134.8    508.5   1278.5   437.00      0.0    134.2      0.6      2.8      0.0    122.9       51    227.4    228.2       85     0.000     0.000     0.000     0.000      107        0        0        0        7       19       13    16.848       74     40.4    6.810   -9.900     1.94    0.000    0.000       26        9     2071  Maize_short_Chisinau_6June_Optimum_26_MPI.PRM
  Tot(92)        6        6     2072    229.3    517.2   1242.8   436.00      0.0    205.3     24.0     31.3      0.0    119.4       46    214.9    214.9       85     0.000     0.000     0.000     0.000      107        0        0        0       14       26        8    14.781       70     40.7    6.017   -9.900     1.80    0.000    0.000       26        9     2072  Maize_short_Chisinau_6June_Optimum_26_MPI.PRM
  Tot(93)        6        6     2073    214.2    514.8   1256.0   436.00      0.0    177.1     37.1      0.0      0.0     97.9       35    199.7    200.1       85     0.000     0.000     0.000     0.000      107        0        0        0       13       24       10    13.652       66     40.6    5.543   -9.900     1.86    0.000    0.000       26        9     2073  Maize_short_Chisinau_6June_Optimum_26_MPI.PRM
  Tot(94)        6        6     2074    165.7    478.8   1169.6   435.00      0.0    163.3      2.4      0.0      0.0     72.7       27    195.0    192.3      100     0.000     0.000     0.000     0.000      107        0        0        0       22       10        0    16.447       90     40.1    6.589   -9.900     2.46    0.000    0.000       26        9     2074  Maize_short_Chisinau_6June_Optimum_26_MPI.PRM
  Tot(95)        6        6     2075    272.0    453.9   1166.1   435.00      0.0    235.6     36.4     48.8      0.0    105.4       52    237.8    239.1      100     0.000     0.000     0.000     0.000      107        0        0        0       16        2        0    20.390       97     40.1    8.185   -9.900     2.38    0.000    0.000       26        9     2075  Maize_short_Chisinau_6June_Optimum_26_MPI.PRM
  Tot(96)        6        6     2076    117.2    527.4   1245.3   434.00      0.0    116.5      0.7      0.0      0.0     78.3       29    231.7    232.9       94     0.000     0.000     0.000     0.000      107        0        0        0       15       17        4    16.975       85     40.8    6.919   -9.900     2.23    0.000    0.000       26        9     2076  Maize_short_Chisinau_6June_Optimum_26_MPI.PRM
  Tot(97)        6        6     2077    150.8    530.8   1243.4   433.00      0.0    149.2      1.6      0.8      0.0    111.5       43    241.0    240.4       88     0.000     0.000     0.000     0.000      107        0        0        0       11       21        9    17.192       77     40.7    6.995   -9.900     1.98    0.000    0.000       26        9     2077  Maize_short_Chisinau_6June_Optimum_26_MPI.PRM
  Tot(98)        6        6     2078    220.3    450.2   1165.2   433.00      0.0    217.2      3.1      1.9      0.0    103.8       50    231.2    230.4      100     0.000     0.000     0.000     0.000      107        0        0        0       15        3        0    20.023       96     40.0    8.010   -9.900     2.39    0.000    0.000       26        9     2078  Maize_short_Chisinau_6June_Optimum_26_MPI.PRM
  Tot(99)        6        6     2079    244.8    405.0   1053.8   432.00      0.0    219.4     25.4     19.4      0.0    115.1       61    206.1    207.8      100     0.000     0.000     0.000     0.000      107        0        0        0       18        7        0    19.978       96     40.3    8.055   -9.900     2.51    0.000    0.000       26        9     2079  Maize_short_Chisinau_6June_Optimum_26_MPI.PRM
 Tot(100)        6        6     2080    126.1    472.9   1171.4   432.00      0.0    124.6      1.5      0.0      0.0    101.8       47    226.4    226.4       90     0.000     0.000     0.000     0.000      107        0        0        0       15       12        8    17.667       81     40.4    7.130   -9.900     2.17    0.000    0.000       26        9     2080  Maize_short_Chisinau_6June_Optimum_26_MPI.PRM
 Tot(101)        6        6     2081    194.1    462.4   1163.4   431.00      0.0    174.3     19.8     26.9      0.0     97.4       49    229.6    229.7       91     0.000     0.000     0.000     0.000      107        0        0        0       16       11        8    17.848       84     40.4    7.204   -9.900     2.20    0.000    0.000       26        9     2081  Maize_short_Chisinau_6June_Optimum_26_MPI.PRM
 Tot(102)        6        6     2082     83.5    509.2   1226.0   431.00      0.0     83.5      0.0      0.0      0.0     89.4       33    189.7    189.7       81     0.000     0.000     0.000     0.000      107        0        0        0       13       24       16    13.071       59     40.5    5.288   -9.900     1.89    0.000    0.000       26        9     2082  Maize_short_Chisinau_6June_Optimum_26_MPI.PRM
 Tot(103)        6        6     2083    128.7    506.4   1213.8   430.00      0.0    128.4      0.3      0.0      0.0    121.0       48    216.0    215.5       86     0.000     0.000     0.000     0.000      107        0        0        0       11       17       13    15.696       72     40.5    6.360   -9.900     1.89    0.000    0.000       26        9     2083  Maize_short_Chisinau_6June_Optimum_26_MPI.PRM
 Tot(104)        6        6     2084    291.0    412.4   1095.6   429.00      0.0    257.0     34.0     31.2      0.0    119.4       67    223.9    224.0      100     0.000     0.000     0.000     0.000      107        0        0        0       18        7        0    19.500       96     40.4    7.881   -9.900     2.30    0.000    0.000       26        9     2084  Maize_short_Chisinau_6June_Optimum_26_MPI.PRM
 Tot(105)        6        6     2085    147.1    454.0   1091.2   429.00      0.0    145.2      1.9      0.0      0.0     82.3       37    216.8    215.6      100     0.000     0.000     0.000     0.000      107        0        0        0       19        5        0    18.447       95     40.2    7.408   -9.900     2.48    0.000    0.000       26        9     2085  Maize_short_Chisinau_6June_Optimum_26_MPI.PRM
 Tot(106)        6        6     2086    174.6    447.9   1125.6   428.00      0.0    165.9      8.7      8.2      0.0    120.3       62    203.0    204.6       85     0.000     0.000     0.000     0.000      107        0        0        0       18       14       11    14.612       75     40.6    5.936   -9.900     1.84    0.000    0.000       26        9     2086  Maize_short_Chisinau_6June_Optimum_26_MPI.PRM
 Tot(107)        6        6     2087    157.1    467.8   1197.8   428.00      0.0    153.6      3.5      3.8      0.0     89.3       39    226.1    225.1       98     0.000     0.000     0.000     0.000      107        0        0        0       11        6        1    19.954       93     40.2    8.017   -9.900     2.54    0.000    0.000       26        9     2087  Maize_short_Chisinau_6June_Optimum_26_MPI.PRM
 Tot(108)        6        6     2088     79.2    545.1   1330.3   427.00      0.0     76.8      2.4      3.2      0.0     79.5       29    211.2    212.2       80     0.000     0.000     0.000     0.000      105        0        0        0        7       13       19    14.343       63     39.7    5.699   -9.900     1.96    0.000    0.000       26        9     2088  Maize_short_Chisinau_6June_Optimum_26_MPI.PRM
 Tot(109)        6        6     2089    236.3    414.3   1018.6   427.00      0.0    218.6     17.7     30.8      0.0    100.1       56    214.9    213.5      100     0.000     0.000     0.000     0.000      107        0        0        0       22        2        0    18.639       97     40.1    7.475   -9.900     2.37    0.000    0.000       26        9     2089  Maize_short_Chisinau_6June_Optimum_26_MPI.PRM
 Tot(110)        6        6     2090    183.4    450.5   1036.2   426.00      0.0    180.4      3.0      1.2      0.0    102.1       47    205.8    206.3      100     0.000     0.000     0.000     0.000      107        0        0        0       22        6        0    17.253       95     40.2    6.937   -9.900     2.25    0.000    0.000       26        9     2090  Maize_short_Chisinau_6June_Optimum_26_MPI.PRM
 Tot(111)        6        6     2091    232.3    519.3   1347.1   425.00      0.0    217.9     14.4     27.6      0.0    134.7       55    242.1    242.4       87     0.000     0.000     0.000     0.000      107        0        0        0        8       11        8    17.993       78     40.3    7.255   -9.900     1.93    0.000    0.000       26        9     2091  Maize_short_Chisinau_6June_Optimum_26_MPI.PRM
 Tot(112)        6        6     2092    242.7    405.2    997.5   425.00      0.0    221.9     20.8      0.0      0.0     97.2       45    163.9    164.5      100     0.000     0.000     0.000     0.000      107        0        0        0       26        9        0    15.708       95     40.3    6.337   -9.900     2.43    0.000    0.000       26        9     2092  Maize_short_Chisinau_6June_Optimum_26_MPI.PRM
 Tot(113)        6        6     2093    279.2    424.4   1035.2   424.00      0.0    251.5     27.7      1.7      0.0     99.3       47    195.3    195.3      100     0.000     0.000     0.000     0.000      107        0        0        0       23        4        0    17.062       95     40.1    6.845   -9.900     2.32    0.000    0.000       26        9     2093  Maize_short_Chisinau_6June_Optimum_26_MPI.PRM
 Tot(114)        6        6     2094    148.4    566.0   1254.2   424.00      0.0    144.6      3.8      4.0      0.0    109.5       38    215.1    215.1       78     0.000     0.000     0.000     0.000      107        0        0        0       15       26       13    12.818       63     40.5    5.189   -9.900     1.60    0.000    0.000       26        9     2094  Maize_short_Chisinau_6June_Optimum_26_MPI.PRM
 Tot(115)        6        6     2095    139.3    509.6   1201.4   423.00      0.0    139.1      0.2      0.0      0.0     94.4       33    210.3    210.2      100     0.000     0.000     0.000     0.000      107        0        0        0       19       15        0    16.880       89     40.5    6.830   -9.900     2.24    0.000    0.000       26        9     2095  Maize_short_Chisinau_6June_Optimum_26_MPI.PRM
 Tot(116)        6        6     2096    106.8    554.9   1378.0   423.00      0.0    106.5      0.3      0.0      0.0     90.7       31    218.1    217.7       82     0.000     0.000     0.000     0.000      107        0        0        0        7       28       13    14.329       63     40.6    5.817   -9.900     1.88    0.000    0.000       26        9     2096  Maize_short_Chisinau_6June_Optimum_26_MPI.PRM
 Tot(117)        6        6     2097    169.6    441.9   1171.8   422.00      0.0    165.9      3.7      9.7      0.0     99.2       56    253.9    254.2       97     0.000     0.000     0.000     0.000      107        0        0        0       13        6        3    20.438       92     40.3    8.244   -9.900     2.33    0.000    0.000       26        9     2097  Maize_short_Chisinau_6June_Optimum_26_MPI.PRM
 Tot(118)        6        6     2098    178.8    454.8   1147.4   422.00      0.0    175.1      3.7      1.7      0.0    101.9       50    234.1    232.9      100     0.000     0.000     0.000     0.000      107        0        0        0       14        1        0    20.126       97     40.0    8.055   -9.900     2.40    0.000    0.000       26        9     2098  Maize_short_Chisinau_6June_Optimum_26_MPI.PRM
 Tot(119)        6        6     2099    197.6    398.6   1005.6   421.00      0.0    186.2     11.4     33.7      0.0    101.4       63    215.0    214.4      100     0.000     0.000     0.000     0.000      107        0        0        0       22        5        0    19.449       97     40.2    7.818   -9.900     2.47    0.000    0.000       26        9     2099  Maize_short_Chisinau_6June_Optimum_26_MPI.PRM
