AquaCrop 7.0 (August 2022) - Output created on (date) : 24-11-2022   at (time) : 10:17:39

    RunNr     Day1   Month1    Year1     Rain      ETo       GD     CO2      Irri   Infilt   Runoff    Drain   Upflow        E     E/Ex       Tr      TrW   Tr/Trx    SaltIn   SaltOut    SaltUp  SaltProf     Cycle   SaltStr  FertStr  WeedStr  TempStr   ExpStr   StoStr  BioMass  Brelative   HI    Y(dry)  Y(fresh)    WPet      Bin     Bout     DayN   MonthN    YearN
                                           mm       mm  degC.day    ppm        mm       mm       mm       mm       mm       mm        %       mm       mm        %    ton/ha    ton/ha    ton/ha    ton/ha      days       %        %        %        %        %        %    ton/ha        %       %    ton/ha   ton/ha    kg/m3   ton/ha   ton/ha
   Tot(1)        7        5     1981    150.4    483.8   1212.1   340.11      0.0    145.9      4.5     12.1      0.0     84.3       41    248.4    248.5       87     0.000     0.000     0.000     0.000      107        0        0        0       12        5        9    17.662       82     39.6    7.001   -9.900     2.10    0.000    0.000       27        8     1981  Maize_short_Chisinau_7May_Optimum_26_MOHC.PRM
   Tot(2)        7        5     1982    192.0    471.0   1188.7   341.22      0.0    191.9      0.1      0.0      0.0     76.4       35    258.6    256.9      100     0.000     0.000     0.000     0.000      107        0        0        0       11        2        0    20.631       96     40.0    8.253   -9.900     2.46    0.000    0.000       27        8     1982  Maize_short_Chisinau_7May_Optimum_26_MOHC.PRM
   Tot(3)        7        5     1983    269.2    465.2   1233.5   342.84      0.0    253.3     15.9     23.6      0.0     99.3       48    261.7    261.5      100     0.000     0.000     0.000     0.000      107        0        0        0        9        2        0    20.707       97     40.1    8.297   -9.900     2.30    0.000    0.000       27        8     1983  Maize_short_Chisinau_7May_Optimum_26_MOHC.PRM
   Tot(4)        7        5     1984    239.1    438.2   1067.3   344.40      0.0    237.1      2.0      2.8      0.0    134.8       75    245.6    247.7      100     0.000     0.000     0.000     0.000      107        0        0        0       17        0        0    19.708       98     40.0    7.884   -9.900     2.07    0.000    0.000       27        8     1984  Maize_short_Chisinau_7May_Optimum_26_MOHC.PRM
   Tot(5)        7        5     1985    292.8    461.8   1172.6   345.87      0.0    263.1     29.7     63.0      0.0    102.2       53    265.5    262.7      100     0.000     0.000     0.000     0.000      107        0        0        0       13        0        0    20.320       97     40.0    8.128   -9.900     2.21    0.000    0.000       27        8     1985  Maize_short_Chisinau_7May_Optimum_26_MOHC.PRM
   Tot(6)        7        5     1986    172.4    527.7   1261.6   347.19      0.0    171.9      0.5      0.0      0.0     89.5       39    281.4    282.2       93     0.000     0.000     0.000     0.000      107        0        0        0        8        5        4    19.208       89     40.0    7.686   -9.900     2.07    0.000    0.000       27        8     1986  Maize_short_Chisinau_7May_Optimum_26_MOHC.PRM
   Tot(7)        7        5     1987    259.6    481.6   1137.9   348.98      0.0    253.3      6.3      0.0      0.0    110.0       59    294.0    293.3      100     0.000     0.000     0.000     0.000      107        0        0        0       15        3        0    20.410       97     40.2    8.196   -9.900     2.03    0.000    0.000       27        8     1987  Maize_short_Chisinau_7May_Optimum_26_MOHC.PRM
   Tot(8)        7        5     1988    236.3    471.5   1252.6   351.45      0.0    227.3      9.0     15.1      0.0    121.2       71    286.2    289.1       93     0.000     0.000     0.000     0.000      107        0        0        0        9        3        5    20.036       90     39.9    8.003   -9.900     1.96    0.000    0.000       27        8     1988  Maize_short_Chisinau_7May_Optimum_26_MOHC.PRM
   Tot(9)        7        5     1989    210.4    486.7   1164.0   352.89      0.0    207.5      2.9      2.5      0.0     95.5       49    291.8    290.7       99     0.000     0.000     0.000     0.000      107        0        0        0       14        3        1    20.905       96     40.2    8.402   -9.900     2.17    0.000    0.000       27        8     1989  Maize_short_Chisinau_7May_Optimum_26_MOHC.PRM
  Tot(10)        7        5     1990    161.6    507.1   1149.5   354.16      0.0    158.4      3.2      2.2      0.0    115.0       55    257.2    258.0       86     0.000     0.000     0.000     0.000      107        0        0        0       16        5       11    17.797       80     39.9    7.104   -9.900     1.91    0.000    0.000       27        8     1990  Maize_short_Chisinau_7May_Optimum_26_MOHC.PRM
  Tot(11)        7        5     1991    438.7    420.7   1183.0   355.48      0.0    393.0     45.7     66.9      0.0    123.6       82    281.3    280.7      100     0.000     0.000     0.000     0.000      107        0        0        0       17        0        0    22.290       98     40.0    8.918   -9.900     2.20    0.000    0.000       27        8     1991  Maize_short_Chisinau_7May_Optimum_26_MOHC.PRM
  Tot(12)        7        5     1992    191.1    523.2   1230.9   356.27      0.0    188.5      2.6      5.7      0.0    128.5       66    273.6    274.3       83     0.000     0.000     0.000     0.000      107        0        0        0       16        4       13    17.580       78     39.5    6.943   -9.900     1.73    0.000    0.000       27        8     1992  Maize_short_Chisinau_7May_Optimum_26_MOHC.PRM
  Tot(13)        7        5     1993    202.8    503.8   1154.4   356.95      0.0    196.6      6.2     19.9      0.0    106.9       53    274.0    273.7       93     0.000     0.000     0.000     0.000      107        0        0        0       13        3        5    18.764       90     39.9    7.490   -9.900     1.97    0.000    0.000       27        8     1993  Maize_short_Chisinau_7May_Optimum_26_MOHC.PRM
  Tot(14)        7        5     1994    258.9    536.5   1263.4   358.63      0.0    219.5     39.4      7.8      0.0    105.8       45    256.5    257.4       84     0.000     0.000     0.000     0.000      107        0        0        0       10       11       11    16.407       72     39.7    6.516   -9.900     1.80    0.000    0.000       27        8     1994  Maize_short_Chisinau_7May_Optimum_26_MOHC.PRM
  Tot(15)        7        5     1995    186.0    502.8   1281.6   360.62      0.0    184.0      2.0      2.1      0.0     91.1       44    283.7    282.9       91     0.000     0.000     0.000     0.000      107        0        0        0        8        6        6    20.100       87     40.1    8.059   -9.900     2.15    0.000    0.000       27        8     1995  Maize_short_Chisinau_7May_Optimum_26_MOHC.PRM
  Tot(16)        7        5     1996    148.0    541.5   1272.6   362.37      0.0    147.1      0.9      0.0      0.0    101.4       38    231.0    231.1       85     0.000     0.000     0.000     0.000      107        0        0        0       10       18       10    15.398       70     40.5    6.235   -9.900     1.88    0.000    0.000       27        8     1996  Maize_short_Chisinau_7May_Optimum_26_MOHC.PRM
  Tot(17)        7        5     1997    305.0    448.8   1194.3   363.47      0.0    288.7     16.3      0.0      0.0     83.2       41    258.3    258.7      100     0.000     0.000     0.000     0.000      107        0        0        0       12        3        0    21.670       96     40.0    8.675   -9.900     2.54    0.000    0.000       27        8     1997  Maize_short_Chisinau_7May_Optimum_26_MOHC.PRM
  Tot(18)        7        5     1998    210.4    488.7   1249.2   366.50      0.0    205.7      4.7     10.9      0.0    111.7       61    290.0    289.0       94     0.000     0.000     0.000     0.000      107        0        0        0       14        1        5    20.335       91     39.9    8.123   -9.900     2.02    0.000    0.000       27        8     1998  Maize_short_Chisinau_7May_Optimum_26_MOHC.PRM
  Tot(19)        7        5     1999    158.4    516.7   1334.1   368.14      0.0    157.0      1.4      0.0      0.0    100.6       45    268.0    268.6       87     0.000     0.000     0.000     0.000      107        0        0        0        8        7       10    18.415       79     40.1    7.384   -9.900     2.00    0.000    0.000       27        8     1999  Maize_short_Chisinau_7May_Optimum_26_MOHC.PRM
  Tot(20)        7        5     2000    167.4    572.2   1257.5   369.41      0.0    163.5      3.9      0.0      0.0     68.3       25    276.6    277.2       91     0.000     0.000     0.000     0.000      107        0        0        0       11       15        6    17.921       82     40.2    7.199   -9.900     2.09    0.000    0.000       27        8     2000  Maize_short_Chisinau_7May_Optimum_26_MOHC.PRM
  Tot(21)        7        5     2001    210.4    518.6   1269.3   371.07      0.0    189.0     21.4     20.8      0.0    114.9       57    275.9    275.6       85     0.000     0.000     0.000     0.000      107        0        0        0       13        2       12    18.703       81     39.6    7.401   -9.900     1.89    0.000    0.000       27        8     2001  Maize_short_Chisinau_7May_Optimum_26_MOHC.PRM
  Tot(22)        7        5     2002    285.3    517.8   1347.8   373.16      0.0    259.1     26.2      0.0      0.0    101.6       45    297.0    295.1       96     0.000     0.000     0.000     0.000      107        0        0        0        7       18        2    20.670       88     40.9    8.454   -9.900     2.12    0.000    0.000       27        8     2002  Maize_short_Chisinau_7May_Optimum_26_MOHC.PRM
  Tot(23)        7        5     2003    186.5    574.0   1346.0   375.80      0.0    185.1      1.4      0.0      0.0     79.3       27    298.2    298.3       98     0.000     0.000     0.000     0.000      107        0        0        0        6       10        1    20.664       90     40.1    8.283   -9.900     2.19    0.000    0.000       27        8     2003  Maize_short_Chisinau_7May_Optimum_26_MOHC.PRM
  Tot(24)        7        5     2004    218.3    504.4   1151.0   377.49      0.0    209.4      8.9      0.0      0.0    107.5       51    288.6    288.6       96     0.000     0.000     0.000     0.000      107        0        0        0       16       11        3    20.363       90     40.3    8.212   -9.900     2.07    0.000    0.000       27        8     2004  Maize_short_Chisinau_7May_Optimum_26_MOHC.PRM
  Tot(25)        7        5     2005    328.8    485.2   1234.8   379.80      0.0    312.1     16.7     20.4      0.0    126.4       64    298.8    298.4      100     0.000     0.000     0.000     0.000      107        0        0        0       10        1        0    22.452       97     40.1    8.997   -9.900     2.12    0.000    0.000       27        8     2005  Maize_short_Chisinau_7May_Optimum_26_MOHC.PRM
  Tot(26)        7        5     2006    272.0    533.8   1259.8   381.90      0.0    265.7      6.3      5.5      0.0    142.1       70    318.0    318.5       94     0.000     0.000     0.000     0.000      107        0        0        0       10        4        5    20.866       90     40.2    8.391   -9.900     1.82    0.000    0.000       27        8     2006  Maize_short_Chisinau_7May_Optimum_26_MOHC.PRM
  Tot(27)        7        5     2007    144.6    648.6   1473.6   383.77      0.0    144.1      0.5      0.0      0.0    103.1       31    250.0    251.3       78     0.000     0.000     0.000     0.000      107        0        0        0        2       20       16    14.065       59     40.1    5.642   -9.900     1.60    0.000    0.000       27        8     2007  Maize_short_Chisinau_7May_Optimum_26_MOHC.PRM
  Tot(28)        7        5     2008    177.3    560.5   1291.6   385.59      0.0    172.8      4.5      0.0      0.0     88.5       38    300.9    300.8       88     0.000     0.000     0.000     0.000      107        0        0        0        6       10        9    19.421       82     40.2    7.814   -9.900     2.01    0.000    0.000       27        8     2008  Maize_short_Chisinau_7May_Optimum_26_MOHC.PRM
  Tot(29)        7        5     2009    161.5    583.3   1333.2   387.37      0.0    160.0      1.5      0.0      0.0     86.6       33    293.0    292.9       86     0.000     0.000     0.000     0.000      107        0        0        0        6       10       11    18.297       78     39.9    7.298   -9.900     1.92    0.000    0.000       27        8     2009  Maize_short_Chisinau_7May_Optimum_26_MOHC.PRM
  Tot(30)        7        5     2010    248.4    518.6   1414.0   389.85      0.0    235.0     13.4      0.2      0.0    121.5       59    315.2    314.2       96     0.000     0.000     0.000     0.000      107        0        0        0        7        1        3    21.891       93     40.0    8.751   -9.900     2.00    0.000    0.000       27        8     2010  Maize_short_Chisinau_7May_Optimum_26_MOHC.PRM
  Tot(31)        7        5     2011    234.3    546.6   1320.9   391.63      0.0    220.0     14.3      7.4      0.0    112.6       48    306.3    306.6       95     0.000     0.000     0.000     0.000      107        0        0        0        6        2        4    20.849       91     40.0    8.336   -9.900     1.99    0.000    0.000       27        8     2011  Maize_short_Chisinau_7May_Optimum_26_MOHC.PRM
  Tot(32)        7        5     2012    192.6    618.6   1442.0   393.82      0.0    189.8      2.8      1.7      0.0    129.4       45    271.7    271.9       80     0.000     0.000     0.000     0.000      107        0        0        0        6       19       15    15.612       66     40.0    6.249   -9.900     1.56    0.000    0.000       27        8     2012  Maize_short_Chisinau_7May_Optimum_26_MOHC.PRM
  Tot(33)        7        5     2013    286.6    541.7   1380.1   396.48      0.0    259.3     27.3      1.1      0.0    118.5       54    322.6    323.2       94     0.000     0.000     0.000     0.000      107        0        0        0        4        2        4    21.875       91     39.9    8.734   -9.900     1.98    0.000    0.000       27        8     2013  Maize_short_Chisinau_7May_Optimum_26_MOHC.PRM
  Tot(34)        7        5     2014    244.6    539.8   1326.2   398.55      0.0    239.3      5.3      8.4      0.0    121.7       59    306.3    304.5       90     0.000     0.000     0.000     0.000      107        0        0        0        7        6        8    20.050       85     40.0    8.017   -9.900     1.87    0.000    0.000       27        8     2014  Maize_short_Chisinau_7May_Optimum_26_MOHC.PRM
  Tot(35)        7        5     2015    123.0    600.5   1355.8   401.00      0.0    122.8      0.2      0.3      0.0     77.9       29    262.6    264.9       79     0.000     0.000     0.000     0.000      107        0        0        0        6       10       16    16.123       69     39.5    6.365   -9.900     1.87    0.000    0.000       27        8     2015  Maize_short_Chisinau_7May_Optimum_26_MOHC.PRM
  Tot(36)        7        5     2016    255.7    540.8   1325.7   403.00      0.0    238.9     16.8     33.2      0.0    141.5       73    285.1    284.7       81     0.000     0.000     0.000     0.000      107        0        0        0       10        5       15    17.832       75     39.7    7.078   -9.900     1.66    0.000    0.000       27        8     2016  Maize_short_Chisinau_7May_Optimum_26_MOHC.PRM
  Tot(37)        7        5     2017    299.1    552.7   1316.4   405.00      0.0    280.2     18.9     14.6      0.0    112.9       53    345.6    343.8       98     0.000     0.000     0.000     0.000      107        0        0        0        9        2        1    22.546       95     40.1    9.033   -9.900     1.97    0.000    0.000       27        8     2017  Maize_short_Chisinau_7May_Optimum_26_MOHC.PRM
  Tot(38)        7        5     2018    279.9    546.1   1430.7   408.00      0.0    265.8     14.1      6.4      0.0    100.9       42    319.5    318.9      100     0.000     0.000     0.000     0.000      107        0        0        0        5        2        0    22.754       96     40.0    9.102   -9.900     2.16    0.000    0.000       27        8     2018  Maize_short_Chisinau_7May_Optimum_26_MOHC.PRM
  Tot(39)        7        5     2019    233.9    552.0   1390.8   410.00      0.0    225.8      8.1     15.5      0.0    132.2       61    296.4    298.7       87     0.000     0.000     0.000     0.000      107        0        0        0        3        9       10    19.440       81     40.1    7.804   -9.900     1.82    0.000    0.000       27        8     2019  Maize_short_Chisinau_7May_Optimum_26_MOHC.PRM
  Tot(40)        7        5     2020    104.0    653.3   1428.1   412.00      0.0    101.2      2.8      5.3      0.0    105.2       33    204.3    205.3       70     0.000     0.000     0.000     0.000       94        0        0        0       15       17       22    11.196       47     30.3    3.389   -9.900     1.11    0.000    0.000       27        8     2020  Maize_short_Chisinau_7May_Optimum_26_MOHC.PRM
  Tot(41)        7        5     2021     93.7    642.4   1469.2   414.00      0.0     91.8      1.9      7.3      0.0     95.6       28    192.0    191.8       70     0.000     0.000     0.000     0.000      107        0        0        0        7       26       24    10.125       42     39.7    4.016   -9.900     1.40    0.000    0.000       27        8     2021  Maize_short_Chisinau_7May_Optimum_26_MOHC.PRM
  Tot(42)        7        5     2022    101.8    676.1   1573.6   417.00      0.0     99.7      2.1      3.1      0.0     99.3       28    210.1    210.3       73     0.000     0.000     0.000     0.000       95        0        0        0        4       23       20    11.644       48     31.7    3.688   -9.900     1.20    0.000    0.000       27        8     2022  Maize_short_Chisinau_7May_Optimum_26_MOHC.PRM
  Tot(43)        7        5     2023     87.2    733.9   1620.3   419.00      0.0     86.9      0.3      0.0      0.0    105.3       24    188.7    188.7       73     0.000     0.000     0.000     0.000       90        0        0        0        3       28       20     9.879       40     27.0    2.671   -9.900     0.92    0.000    0.000       27        8     2023  Maize_short_Chisinau_7May_Optimum_26_MOHC.PRM
  Tot(44)        7        5     2024    138.9    599.5   1461.6   421.00      0.0    136.2      2.7      0.0      0.0     87.0       36    274.4    274.3       78     0.000     0.000     0.000     0.000      107        0        0        0        4        7       17    16.933       70     38.9    6.580   -9.900     1.82    0.000    0.000       27        8     2024  Maize_short_Chisinau_7May_Optimum_26_MOHC.PRM
  Tot(45)        7        5     2025     90.3    627.7   1360.5   423.00      0.0     89.6      0.7      1.8      0.0     93.9       27    176.3    176.5       70     0.000     0.000     0.000     0.000       88        0        0        0       15       29       21     9.162       39     24.6    2.252   -9.900     0.89    0.000    0.000       27        8     2025  Maize_short_Chisinau_7May_Optimum_26_MOHC.PRM
  Tot(46)        7        5     2026    126.3    701.8   1543.8   424.00      0.0    120.7      5.6      0.4      0.0     93.9       27    247.8    247.8       75     0.000     0.000     0.000     0.000      101        0        0        0        7       16       21    13.251       54     36.8    4.872   -9.900     1.43    0.000    0.000       27        8     2026  Maize_short_Chisinau_7May_Optimum_26_MOHC.PRM
  Tot(47)        7        5     2027     60.2    694.8   1536.4   426.00      0.0     60.2      0.0      0.0      0.0     89.2       22    173.5    173.5       70     0.000     0.000     0.000     0.000       87        0        0        0       10       30       22     8.770       36     23.5    2.065   -9.900     0.82    0.000    0.000       27        8     2027  Maize_short_Chisinau_7May_Optimum_26_MOHC.PRM
  Tot(48)        7        5     2028    125.8    712.2   1522.8   428.00      0.0    118.0      7.8      5.9      0.0    122.3       31    191.2    191.2       68     0.000     0.000     0.000     0.000       85        0        0        0        8       27       23     8.717       36     21.4    1.864   -9.900     0.60    0.000    0.000       27        8     2028  Maize_short_Chisinau_7May_Optimum_26_MOHC.PRM
  Tot(49)        7        5     2029    123.8    609.2   1474.2   429.00      0.0    118.3      5.5     22.4      0.0     99.6       37    214.6    214.6       71     0.000     0.000     0.000     0.000       97        0        0        0        9       13       22    12.661       52     33.0    4.175   -9.900     1.34    0.000    0.000       27        8     2029  Maize_short_Chisinau_7May_Optimum_26_MOHC.PRM
  Tot(50)        7        5     2030     89.1    755.0   1654.7   431.00      0.0     88.8      0.3      0.0      0.0     90.8       22    211.1    211.1       69     0.000     0.000     0.000     0.000       91        0        0        0        5       23       22    10.349       42     27.0    2.795   -9.900     0.95    0.000    0.000       27        8     2030  Maize_short_Chisinau_7May_Optimum_26_MOHC.PRM
  Tot(51)        7        5     2031    115.5    656.2   1525.9   432.00      0.0    114.7      0.8      1.3      0.0     95.4       31    234.7    234.7       72     0.000     0.000     0.000     0.000      102        0        0        0        6       16       23    13.291       54     37.4    4.969   -9.900     1.53    0.000    0.000       27        8     2031  Maize_short_Chisinau_7May_Optimum_26_MOHC.PRM
  Tot(52)        7        5     2032     72.3    754.4   1677.3   433.00      0.0     66.5      5.8      9.6      0.0     80.6       18    177.3    177.3       68     0.000     0.000     0.000     0.000       85        0        0        0        2       29       22     8.505       35     15.4    1.310   -9.900     0.51    0.000    0.000       27        8     2032  Maize_short_Chisinau_7May_Optimum_26_MOHC.PRM
  Tot(53)        7        5     2033    128.5    714.0   1640.0   435.00      0.0    128.1      0.4      0.0      0.0    120.7       33    217.1    217.1       69     0.000     0.000     0.000     0.000       93        0        0        0        1       18       22    11.312       47     29.0    3.285   -9.900     0.99    0.000    0.000       27        8     2033  Maize_short_Chisinau_7May_Optimum_26_MOHC.PRM
  Tot(54)        7        5     2034    186.4    547.9   1348.2   436.00      0.0    179.5      6.9     18.0      0.0    109.8       57    277.7    277.1       79     0.000     0.000     0.000     0.000      107        0        0        0       10        2       14    18.733       78     39.1    7.325   -9.900     1.89    0.000    0.000       27        8     2034  Maize_short_Chisinau_7May_Optimum_26_MOHC.PRM
  Tot(55)        7        5     2035     92.4    643.9   1506.8   437.00      0.0     92.2      0.2      0.0      0.0    101.8       32    202.5    203.1       72     0.000     0.000     0.000     0.000       92        0        0        0        4       21       21    11.053       45     28.5    3.147   -9.900     1.04    0.000    0.000       27        8     2035  Maize_short_Chisinau_7May_Optimum_26_MOHC.PRM
  Tot(56)        7        5     2036    130.1    697.5   1528.0   438.00      0.0    128.7      1.4      0.0      0.0     95.0       31    256.9    256.9       69     0.000     0.000     0.000     0.000      107        0        0        0        5       11       28    13.334       54     36.9    4.923   -9.900     1.40    0.000    0.000       27        8     2036  Maize_short_Chisinau_7May_Optimum_26_MOHC.PRM
  Tot(57)        7        5     2037     90.0    698.5   1582.2   438.00      0.0     89.1      0.9      0.0      0.0    103.6       28    192.1    192.1       69     0.000     0.000     0.000     0.000       88        0        0        0        5       24       22     9.766       40     24.4    2.382   -9.900     0.81    0.000    0.000       27        8     2037  Maize_short_Chisinau_7May_Optimum_26_MOHC.PRM
  Tot(58)        7        5     2038    124.6    563.0   1385.8   439.00      0.0    123.4      1.2      3.0      0.0    115.5       51    228.0    228.0       74     0.000     0.000     0.000     0.000      104        0        0        0       10        6       21    14.954       62     38.5    5.764   -9.900     1.68    0.000    0.000       27        8     2038  Maize_short_Chisinau_7May_Optimum_26_MOHC.PRM
  Tot(59)        7        5     2039    116.8    696.7   1575.6   440.00      0.0    114.7      2.1      0.0      0.0    126.7       34    191.2    191.2       69     0.000     0.000     0.000     0.000       88        0        0        0        4       25       22     9.862       40     24.4    2.403   -9.900     0.79    0.000    0.000       27        8     2039  Maize_short_Chisinau_7May_Optimum_26_MOHC.PRM
  Tot(60)        7        5     2040     20.1    682.1   1466.1   440.00      0.0     20.1      0.0      0.0      0.0     53.0       12    165.2    165.2       74     0.000     0.000     0.000     0.000       88        0        0        0        6       34       20     8.485       35     24.9    2.116   -9.900     1.00    0.000    0.000       27        8     2040  Maize_short_Chisinau_7May_Optimum_26_MOHC.PRM
  Tot(61)        7        5     2041     91.1    679.9   1468.7   441.00      0.0     89.4      1.7      7.0      0.0     93.9       27    197.9    197.9       71     0.000     0.000     0.000     0.000       90        0        0        0       12       24       22    10.298       42     26.5    2.727   -9.900     0.94    0.000    0.000       27        8     2041  Maize_short_Chisinau_7May_Optimum_26_MOHC.PRM
  Tot(62)        7        5     2042    113.7    577.5   1401.8   441.00      0.0    113.4      0.3      0.0      0.0     81.6       34    254.9    254.8       78     0.000     0.000     0.000     0.000      107        0        0        0        9       21       19    15.444       63     39.7    6.128   -9.900     1.82    0.000    0.000       27        8     2042  Maize_short_Chisinau_7May_Optimum_26_MOHC.PRM
  Tot(63)        7        5     2043    109.4    716.7   1629.4   441.00      0.0    109.4      0.0      0.0      0.0    116.4       31    209.0    209.1       70     0.000     0.000     0.000     0.000       94        0        0        0        2       20       22    11.452       46     30.1    3.449   -9.900     1.07    0.000    0.000       27        8     2043  Maize_short_Chisinau_7May_Optimum_26_MOHC.PRM
  Tot(64)        7        5     2044    235.7    579.4   1402.5   442.00      0.0    228.6      7.1     26.1      0.0    133.0       67    295.5    295.3       80     0.000     0.000     0.000     0.000      107        0        0        0       10        3       17    18.100       74     38.9    7.044   -9.900     1.64    0.000    0.000       27        8     2044  Maize_short_Chisinau_7May_Optimum_26_MOHC.PRM
  Tot(65)        7        5     2045    184.8    631.7   1482.7   442.00      0.0    164.7     20.1     43.6      0.0    112.2       41    229.5    229.7       71     0.000     0.000     0.000     0.000       99        0        0        0        3       13       22    13.467       55     34.8    4.682   -9.900     1.38    0.000    0.000       27        8     2045  Maize_short_Chisinau_7May_Optimum_26_MOHC.PRM
  Tot(66)        7        5     2046     98.2    773.7   1750.4   442.00      0.0     96.4      1.8      3.1      0.0    109.1       23    184.5    184.5       69     0.000     0.000     0.000     0.000       84        0        0        0        3       31       22     8.291       33     11.5    0.950   -9.900     0.33    0.000    0.000       27        8     2046  Maize_short_Chisinau_7May_Optimum_26_MOHC.PRM
  Tot(67)        7        5     2047    118.6    672.6   1579.5   442.00      0.0    114.5      4.1      7.7      0.0    119.0       34    197.8    197.8       72     0.000     0.000     0.000     0.000       91        0        0        0        6       23       22    10.766       44     27.5    2.958   -9.900     0.94    0.000    0.000       27        8     2047  Maize_short_Chisinau_7May_Optimum_26_MOHC.PRM
  Tot(68)        7        5     2048    173.3    593.9   1420.0   442.00      0.0    164.8      8.5      0.0      0.0     98.3       42    290.1    289.3       80     0.000     0.000     0.000     0.000      107        0        0        0        8        7       16    17.029       71     39.5    6.720   -9.900     1.73    0.000    0.000       27        8     2048  Maize_short_Chisinau_7May_Optimum_26_MOHC.PRM
  Tot(69)        7        5     2049     96.2    606.6   1551.7   443.00      0.0     96.1      0.1      0.0      0.0     95.4       29    203.4    204.1       75     0.000     0.000     0.000     0.000      107        0        0        0        3       21       18    12.022       49     40.0    4.813   -9.900     1.61    0.000    0.000       27        8     2049  Maize_short_Chisinau_7May_Optimum_26_MOHC.PRM
  Tot(70)        7        5     2050     99.8    629.2   1494.8   443.00      0.0     97.9      1.9      2.1      0.0     97.9       31    206.5    206.6       72     0.000     0.000     0.000     0.000       94        0        0        0        9       20       21    11.473       47     30.6    3.510   -9.900     1.18    0.000    0.000       27        8     2050  Maize_short_Chisinau_7May_Optimum_26_MOHC.PRM
  Tot(71)        7        5     2051    119.2    653.3   1530.6   443.00      0.0    115.7      3.5      7.2      0.0    113.6       36    208.5    208.5       71     0.000     0.000     0.000     0.000       93        0        0        0        9       18       22    11.362       46     29.4    3.338   -9.900     1.04    0.000    0.000       27        8     2051  Maize_short_Chisinau_7May_Optimum_26_MOHC.PRM
  Tot(72)        7        5     2052    127.3    619.3   1540.6   443.00      0.0    126.7      0.6      2.1      0.0     99.5       37    251.5    251.3       72     0.000     0.000     0.000     0.000      107        0        0        0        5       18       23    14.626       59     38.9    5.688   -9.900     1.62    0.000    0.000       27        8     2052  Maize_short_Chisinau_7May_Optimum_26_MOHC.PRM
  Tot(73)        7        5     2053     90.0    691.4   1622.1   443.00      0.0     90.0      0.0      0.0      0.0     99.7       26    204.8    205.0       71     0.000     0.000     0.000     0.000       95        0        0        0        2       26       22    10.837       44     31.4    3.406   -9.900     1.13    0.000    0.000       27        8     2053  Maize_short_Chisinau_7May_Optimum_26_MOHC.PRM
  Tot(74)        7        5     2054    140.8    618.8   1498.8   443.00      0.0    136.7      4.1     11.1      0.0    132.5       43    207.7    207.7       74     0.000     0.000     0.000     0.000       96        0        0        0        4       21       21    12.111       49     32.6    3.945   -9.900     1.16    0.000    0.000       27        8     2054  Maize_short_Chisinau_7May_Optimum_26_MOHC.PRM
  Tot(75)        7        5     2055    118.9    638.9   1509.0   443.00      0.0    108.5     10.4     31.9      0.0     87.9       24    187.1    187.1       75     0.000     0.000     0.000     0.000       94        0        0        0        9       30       19    10.130       41     31.2    3.156   -9.900     1.16    0.000    0.000       27        8     2055  Maize_short_Chisinau_7May_Optimum_26_MOHC.PRM
  Tot(76)        7        5     2056    163.2    642.5   1524.9   442.00      0.0    159.4      3.8      1.8      0.0    110.8       43    270.1    270.1       75     0.000     0.000     0.000     0.000      106        0        0        0        4        7       21    15.796       64     38.5    6.077   -9.900     1.60    0.000    0.000       27        8     2056  Maize_short_Chisinau_7May_Optimum_26_MOHC.PRM
  Tot(77)        7        5     2057    142.5    663.6   1550.5   442.00      0.0    141.7      0.8      0.0      0.0    103.3       36    261.2    261.2       76     0.000     0.000     0.000     0.000      103        0        0        0        8        6       21    14.791       60     38.4    5.677   -9.900     1.56    0.000    0.000       27        8     2057  Maize_short_Chisinau_7May_Optimum_26_MOHC.PRM
  Tot(78)        7        5     2058     79.9    639.8   1513.8   442.00      0.0     79.8      0.1      0.0      0.0     88.2       27    206.5    206.5       72     0.000     0.000     0.000     0.000       97        0        0        0        8       23       22    11.746       48     33.5    3.940   -9.900     1.34    0.000    0.000       27        8     2058  Maize_short_Chisinau_7May_Optimum_26_MOHC.PRM
  Tot(79)        7        5     2059     82.9    643.1   1509.5   442.00      0.0     82.7      0.2      0.0      0.0     93.9       25    189.4    189.2       74     0.000     0.000     0.000     0.000      107        0        0        0        9       31       22    10.183       42     40.1    4.083   -9.900     1.44    0.000    0.000       27        8     2059  Maize_short_Chisinau_7May_Optimum_26_MOHC.PRM
  Tot(80)        7        5     2060     91.4    585.4   1419.4   442.00      0.0     84.0      7.4     24.2      0.0     83.4       29    187.8    188.0       73     0.000     0.000     0.000     0.000       94        0        0        0       11       22       21    11.502       47     30.6    3.522   -9.900     1.30    0.000    0.000       27        8     2060  Maize_short_Chisinau_7May_Optimum_26_MOHC.PRM
  Tot(81)        7        5     2061     84.8    635.0   1524.6   441.00      0.0     81.1      3.7      6.9      0.0     93.9       28    191.8    191.8       71     0.000     0.000     0.000     0.000       92        0        0        0        8       21       21    11.138       45     28.8    3.209   -9.900     1.15    0.000    0.000       27        8     2061  Maize_short_Chisinau_7May_Optimum_26_MOHC.PRM
  Tot(82)        7        5     2062    107.7    637.7   1504.9   441.00      0.0    107.7      0.0      0.0      0.0    116.5       33    191.2    191.2       73     0.000     0.000     0.000     0.000       94        0        0        0        6       24       20    10.907       45     30.9    3.372   -9.900     1.16    0.000    0.000       27        8     2062  Maize_short_Chisinau_7May_Optimum_26_MOHC.PRM
  Tot(83)        7        5     2063    210.1    601.7   1487.9   441.00      0.0    177.4     32.7     43.5      0.0    112.9       42    210.7    210.7       71     0.000     0.000     0.000     0.000       95        0        0        0        9       17       22    12.174       50     31.2    3.798   -9.900     1.20    0.000    0.000       27        8     2063  Maize_short_Chisinau_7May_Optimum_26_MOHC.PRM
  Tot(84)        7        5     2064     86.0    644.7   1544.9   440.00      0.0     85.5      0.5      4.8      0.0    100.7       30    184.4    184.4       69     0.000     0.000     0.000     0.000       90        0        0        0        5       24       22    10.353       42     26.3    2.727   -9.900     0.97    0.000    0.000       27        8     2064  Maize_short_Chisinau_7May_Optimum_26_MOHC.PRM
  Tot(85)        7        5     2065     42.6    739.8   1614.4   440.00      0.0     42.6      0.0      0.0      0.0     76.3       15    157.6    157.6       71     0.000     0.000     0.000     0.000       83        0        0        0        2       36       20     7.102       29     20.4    1.446   -9.900     0.63    0.000    0.000       27        8     2065  Maize_short_Chisinau_7May_Optimum_26_MOHC.PRM
  Tot(86)        7        5     2066    223.8    620.8   1465.4   440.00      0.0    189.2     34.6      0.4      0.0    110.9       35    218.0    218.0       74     0.000     0.000     0.000     0.000      107        0        0        0        6       23       17    11.872       49     39.8    4.727   -9.900     1.44    0.000    0.000       27        8     2066  Maize_short_Chisinau_7May_Optimum_26_MOHC.PRM
  Tot(87)        7        5     2067    100.2    625.5   1439.4   439.00      0.0     99.2      1.0      0.7      0.0    110.6       31    174.1    174.2       71     0.000     0.000     0.000     0.000      107        0        0        0        6       29       17     9.367       38     26.0    2.439   -9.900     0.86    0.000    0.000       27        8     2067  Maize_short_Chisinau_7May_Optimum_26_MOHC.PRM
  Tot(88)        7        5     2068    180.5    561.9   1343.1   439.00      0.0    177.4      3.1      1.3      0.0     95.1       46    299.0    298.3       83     0.000     0.000     0.000     0.000      107        0        0        0       11        4       14    18.739       77     39.5    7.407   -9.900     1.88    0.000    0.000       27        8     2068  Maize_short_Chisinau_7May_Optimum_26_MOHC.PRM
  Tot(89)        7        5     2069    123.6    593.9   1444.7   438.00      0.0    120.5      3.1     14.3      0.0    112.8       44    214.2    214.9       69     0.000     0.000     0.000     0.000      107        0        0        0        8       22       26    12.711       52     39.2    4.987   -9.900     1.53    0.000    0.000       27        8     2069  Maize_short_Chisinau_7May_Optimum_26_MOHC.PRM
  Tot(90)        7        5     2070    112.5    583.8   1421.3   437.00      0.0     89.5     23.0     23.7      0.0     82.9       30    195.2    195.2       72     0.000     0.000     0.000     0.000       94        0        0        0       11       20       21    11.522       47     30.5    3.515   -9.900     1.30    0.000    0.000       27        8     2070  Maize_short_Chisinau_7May_Optimum_26_MOHC.PRM
  Tot(91)        7        5     2071    143.9    597.7   1419.3   437.00      0.0    135.0      8.9      0.0      0.0     91.6       31    215.4    215.2       73     0.000     0.000     0.000     0.000      107        0        0        0        8       24       21    12.740       54     39.5    5.038   -9.900     1.64    0.000    0.000       27        8     2071  Maize_short_Chisinau_7May_Optimum_26_MOHC.PRM
  Tot(92)        7        5     2072     77.9    602.6   1379.7   436.00      0.0     77.5      0.4      0.8      0.0     99.1       31    181.2    181.4       73     0.000     0.000     0.000     0.000       93        0        0        0       10       25       19    10.562       43     30.0    3.169   -9.900     1.14    0.000    0.000       27        8     2072  Maize_short_Chisinau_7May_Optimum_26_MOHC.PRM
  Tot(93)        7        5     2073     82.4    687.7   1625.2   436.00      0.0     82.1      0.3      0.0      0.0     79.9       23    222.0    222.0       69     0.000     0.000     0.000     0.000      103        0        0        0        1       25       26    11.391       46     38.9    4.433   -9.900     1.47    0.000    0.000       27        8     2073  Maize_short_Chisinau_7May_Optimum_26_MOHC.PRM
  Tot(94)        7        5     2074    102.3    594.4   1323.6   435.00      0.0    102.2      0.1      0.0      0.0     84.1       34    242.3    242.3       76     0.000     0.000     0.000     0.000      104        0        0        0       15        9       20    14.651       61     38.8    5.683   -9.900     1.74    0.000    0.000       27        8     2074  Maize_short_Chisinau_7May_Optimum_26_MOHC.PRM
  Tot(95)        7        5     2075    149.3    578.7   1439.5   435.00      0.0    149.2      0.1      0.0      0.0    136.5       57    233.5    233.5       75     0.000     0.000     0.000     0.000      103        0        0        0        7        7       20    14.568       60     38.6    5.620   -9.900     1.55    0.000    0.000       27        8     2075  Maize_short_Chisinau_7May_Optimum_26_MOHC.PRM
  Tot(96)        7        5     2076     88.2    705.5   1627.8   434.00      0.0     87.9      0.3      0.2      0.0     96.4       26    203.8    203.8       71     0.000     0.000     0.000     0.000       91        0        0        0        4       23       22    10.653       43     27.3    2.907   -9.900     0.98    0.000    0.000       27        8     2076  Maize_short_Chisinau_7May_Optimum_26_MOHC.PRM
  Tot(97)        7        5     2077     90.7    713.0   1516.1   433.00      0.0     90.7      0.0      0.0      0.0    109.3       26    183.3    183.3       71     0.000     0.000     0.000     0.000       87        0        0        0        4       28       21     9.041       37     23.7    2.143   -9.900     0.74    0.000    0.000       27        8     2077  Maize_short_Chisinau_7May_Optimum_26_MOHC.PRM
  Tot(98)        7        5     2078    147.7    611.4   1538.8   433.00      0.0    146.7      1.0      4.7      0.0    137.3       46    221.6    221.6       77     0.000     0.000     0.000     0.000       98        0        0        0        4       19       20    13.069       53     34.5    4.508   -9.900     1.26    0.000    0.000       27        8     2078  Maize_short_Chisinau_7May_Optimum_26_MOHC.PRM
  Tot(99)        7        5     2079     87.5    629.8   1489.4   432.00      0.0     87.4      0.1      0.0      0.0     89.6       29    214.9    214.9       73     0.000     0.000     0.000     0.000       98        0        0        0        8       18       21    12.532       51     34.2    4.290   -9.900     1.45    0.000    0.000       27        8     2079  Maize_short_Chisinau_7May_Optimum_26_MOHC.PRM
 Tot(100)        7        5     2080    160.6    648.6   1468.8   432.00      0.0    140.4     20.2     38.0      0.0    103.5       35    216.7    216.7       68     0.000     0.000     0.000     0.000       96        0        0        0        9       17       23    12.062       49     31.7    3.823   -9.900     1.20    0.000    0.000       27        8     2080  Maize_short_Chisinau_7May_Optimum_26_MOHC.PRM
 Tot(101)        7        5     2081     89.8    698.0   1656.7   431.00      0.0     89.8      0.0      0.0      0.0    100.3       25    184.6    184.6       70     0.000     0.000     0.000     0.000       88        0        0        0        2       27       21     9.466       38     24.5    2.322   -9.900     0.84    0.000    0.000       27        8     2081  Maize_short_Chisinau_7May_Optimum_26_MOHC.PRM
 Tot(102)        7        5     2082     92.7    720.6   1618.2   431.00      0.0     87.7      5.0     12.6      0.0     99.0       23    178.1    178.1       72     0.000     0.000     0.000     0.000       86        0        0        0        5       30       21     8.896       36     23.1    2.055   -9.900     0.75    0.000    0.000       27        8     2082  Maize_short_Chisinau_7May_Optimum_26_MOHC.PRM
 Tot(103)        7        5     2083     98.4    693.7   1579.8   430.00      0.0     97.5      0.9      0.0      0.0     92.4       24    203.7    203.7       72     0.000     0.000     0.000     0.000       91        0        0        0        3       24       21    10.206       42     27.5    2.808   -9.900     1.00    0.000    0.000       27        8     2083  Maize_short_Chisinau_7May_Optimum_26_MOHC.PRM
 Tot(104)        7        5     2084    138.4    658.1   1564.7   429.00      0.0    134.8      3.6      2.9      0.0    106.5       40    250.8    250.8       68     0.000     0.000     0.000     0.000      103        0        0        0        6        9       25    13.677       56     37.6    5.141   -9.900     1.45    0.000    0.000       27        8     2084  Maize_short_Chisinau_7May_Optimum_26_MOHC.PRM
 Tot(105)        7        5     2085    121.4    613.1   1466.1   429.00      0.0    116.1      5.3     10.4      0.0    110.3       38    209.7    209.7       73     0.000     0.000     0.000     0.000       95        0        0        0        9       16       21    12.092       50     31.5    3.807   -9.900     1.20    0.000    0.000       27        8     2085  Maize_short_Chisinau_7May_Optimum_26_MOHC.PRM
 Tot(106)        7        5     2086     76.1    594.0   1402.3   428.00      0.0     76.1      0.0      0.0      0.0     82.1       30    211.8    211.8       72     0.000     0.000     0.000     0.000       98        0        0        0        9       14       21    12.669       52     34.1    4.319   -9.900     1.51    0.000    0.000       27        8     2086  Maize_short_Chisinau_7May_Optimum_26_MOHC.PRM
 Tot(107)        7        5     2087     84.8    717.6   1663.3   428.00      0.0     83.9      0.9      3.5      0.0     96.9       21    170.4    170.4       74     0.000     0.000     0.000     0.000       86        0        0        0        2       33       20     8.203       33     23.4    1.918   -9.900     0.77    0.000    0.000       27        8     2087  Maize_short_Chisinau_7May_Optimum_26_MOHC.PRM
 Tot(108)        7        5     2088    177.7    566.6   1398.0   427.00      0.0    167.0     10.7     28.0      0.0    113.3       49    231.4    231.4       75     0.000     0.000     0.000     0.000      101        0        0        0       12       10       20    14.211       59     37.1    5.265   -9.900     1.56    0.000    0.000       27        8     2088  Maize_short_Chisinau_7May_Optimum_26_MOHC.PRM
 Tot(109)        7        5     2089    152.5    605.5   1500.2   427.00      0.0    152.4      0.1      0.0      0.0    127.3       44    232.6    232.6       77     0.000     0.000     0.000     0.000      100        0        0        0        4       17       19    13.640       56     36.8    5.017   -9.900     1.41    0.000    0.000       27        8     2089  Maize_short_Chisinau_7May_Optimum_26_MOHC.PRM
 Tot(110)        7        5     2090    108.9    694.7   1637.5   426.00      0.0    108.6      0.3      0.0      0.0    110.7       28    200.0    200.0       74     0.000     0.000     0.000     0.000       92        0        0        0        4       26       20    10.286       42     28.9    2.970   -9.900     0.97    0.000    0.000       27        8     2090  Maize_short_Chisinau_7May_Optimum_26_MOHC.PRM
 Tot(111)        7        5     2091    100.3    590.9   1502.0   425.00      0.0    100.3      0.0      0.0      0.0     95.3       30    211.4    211.4       78     0.000     0.000     0.000     0.000      102        0        0        0        4       27       19    13.000       53     39.0    5.065   -9.900     1.67    0.000    0.000       27        8     2091  Maize_short_Chisinau_7May_Optimum_26_MOHC.PRM
 Tot(112)        7        5     2092    122.1    568.5   1369.4   425.00      0.0    118.2      3.9      5.5      0.0     95.9       43    243.9    243.8       75     0.000     0.000     0.000     0.000      107        0        0        0       14        9       20    15.958       66     38.6    6.156   -9.900     1.81    0.000    0.000       27        8     2092  Maize_short_Chisinau_7May_Optimum_26_MOHC.PRM
 Tot(113)        7        5     2093     72.7    661.5   1538.2   424.00      0.0     72.7      0.0      0.0      0.0     90.7       26    194.8    194.8       71     0.000     0.000     0.000     0.000       93        0        0        0        7       22       21    10.996       45     29.4    3.233   -9.900     1.14    0.000    0.000       27        8     2093  Maize_short_Chisinau_7May_Optimum_26_MOHC.PRM
 Tot(114)        7        5     2094    152.2    594.6   1406.0   424.00      0.0    123.2     29.0     37.4      0.0     98.9       35    200.8    200.8       74     0.000     0.000     0.000     0.000       94        0        0        0       12       19       20    11.878       49     30.9    3.669   -9.900     1.24    0.000    0.000       27        8     2094  Maize_short_Chisinau_7May_Optimum_26_MOHC.PRM
 Tot(115)        7        5     2095    119.1    641.7   1497.7   423.00      0.0    118.6      0.5      0.4      0.0     90.8       34    249.6    249.6       74     0.000     0.000     0.000     0.000      101        0        0        0       10        6       21    14.009       58     36.5    5.110   -9.900     1.50    0.000    0.000       27        8     2095  Maize_short_Chisinau_7May_Optimum_26_MOHC.PRM
 Tot(116)        7        5     2096     67.7    683.6   1608.9   423.00      0.0     67.7      0.0      0.0      0.0     92.5       21    174.0    174.0       75     0.000     0.000     0.000     0.000       90        0        0        0        2       33       19     8.759       36     27.1    2.372   -9.900     0.91    0.000    0.000       27        8     2096  Maize_short_Chisinau_7May_Optimum_26_MOHC.PRM
 Tot(117)        7        5     2097     93.5    610.9   1485.3   422.00      0.0     93.4      0.1      0.0      0.0     93.1       36    225.7    225.7       69     0.000     0.000     0.000     0.000      103        0        0        0        7       14       23    13.693       56     38.2    5.230   -9.900     1.64    0.000    0.000       27        8     2097  Maize_short_Chisinau_7May_Optimum_26_MOHC.PRM
 Tot(118)        7        5     2098     79.5    585.1   1278.7   422.00      0.0     79.2      0.3      1.0      0.0     80.4       30    216.0    215.7       71     0.000     0.000     0.000     0.000      107        0        0        0       14       26       22    12.799       53     39.9    5.102   -9.900     1.72    0.000    0.000       27        8     2098  Maize_short_Chisinau_7May_Optimum_26_MOHC.PRM
 Tot(119)        7        5     2099     51.2    764.9   1624.5   421.00      0.0     50.9      0.3      0.9      0.0     78.7       16    165.3    165.6       71     0.000     0.000     0.000     0.000       83        0        0        0       10       35       21     7.397       30     20.2    1.495   -9.900     0.62    0.000    0.000       27        8     2099  Maize_short_Chisinau_7May_Optimum_26_MOHC.PRM
