AquaCrop 7.0 (August 2022) - Output created on (date) : 23-11-2022   at (time) : 14:35:56

    RunNr     Day1   Month1    Year1     Rain      ETo       GD     CO2      Irri   Infilt   Runoff    Drain   Upflow        E     E/Ex       Tr      TrW   Tr/Trx    SaltIn   SaltOut    SaltUp  SaltProf     Cycle   SaltStr  FertStr  WeedStr  TempStr   ExpStr   StoStr  BioMass  Brelative   HI    Y(dry)  Y(fresh)    WPet      Bin     Bout     DayN   MonthN    YearN
                                           mm       mm  degC.day    ppm        mm       mm       mm       mm       mm       mm        %       mm       mm        %    ton/ha    ton/ha    ton/ha    ton/ha      days       %        %        %        %        %        %    ton/ha        %       %    ton/ha   ton/ha    kg/m3   ton/ha   ton/ha
   Tot(1)        6        6     1981    323.6    420.3   1169.7   340.11      0.0    268.1     55.5     55.9      0.0    129.2       64    209.4    208.3      100     0.000     0.000     0.000     0.000      107        0        0        0       19        7        0    17.556       96     40.4    7.090   -9.900     2.09    0.000    0.000       26        9     1981  Maize_Short_Soroca_6June_Optimum_26_MOHC.PRM
   Tot(2)        6        6     1982    276.8    416.0   1171.0   341.22      0.0    237.3     39.5     48.6      0.0    148.1       82    232.7    233.7       97     0.000     0.000     0.000     0.000      107        0        0        0       12        3        3    19.968       93     40.2    8.020   -9.900     2.11    0.000    0.000       26        9     1982  Maize_Short_Soroca_6June_Optimum_26_MOHC.PRM
   Tot(3)        6        6     1983    213.6    428.2   1169.7   342.84      0.0    208.8      4.8      6.9      0.0    121.7       64    228.0    228.3      100     0.000     0.000     0.000     0.000      107        0        0        0       13        1        0    19.517       97     40.0    7.809   -9.900     2.23    0.000    0.000       26        9     1983  Maize_Short_Soroca_6June_Optimum_26_MOHC.PRM
   Tot(4)        6        6     1984    282.0    406.7   1061.7   344.40      0.0    268.3     13.7     12.2      0.0    154.8       87    216.6    215.2      100     0.000     0.000     0.000     0.000      107        0        0        0       20        1        0    19.322       98     40.1    7.745   -9.900     2.09    0.000    0.000       26        9     1984  Maize_Short_Soroca_6June_Optimum_26_MOHC.PRM
   Tot(5)        6        6     1985    357.2    428.1   1082.1   345.87      0.0    308.6     48.6     56.8      0.0    145.6       82    232.9    234.3      100     0.000     0.000     0.000     0.000      107        0        0        0       23        2        1    17.888       97     40.1    7.165   -9.900     1.89    0.000    0.000       26        9     1985  Maize_Short_Soroca_6June_Optimum_26_MOHC.PRM
   Tot(6)        6        6     1986    147.6    489.6   1212.2   347.19      0.0    146.7      0.9      0.0      0.0    114.5       49    234.2    234.2       96     0.000     0.000     0.000     0.000      107        0        0        0       17        9        5    17.133       89     40.4    6.915   -9.900     1.98    0.000    0.000       26        9     1986  Maize_Short_Soroca_6June_Optimum_26_MOHC.PRM
   Tot(7)        6        6     1987    211.9    451.8   1159.6   348.98      0.0    206.3      5.6      6.4      0.0    114.2       50    205.0    203.2      100     0.000     0.000     0.000     0.000      107        0        0        0       17        6        0    17.270       94     40.0    6.911   -9.900     2.16    0.000    0.000       26        9     1987  Maize_Short_Soroca_6June_Optimum_26_MOHC.PRM
   Tot(8)        6        6     1988    248.1    413.1   1202.7   351.45      0.0    238.8      9.3     15.2      0.0    134.4       71    218.9    219.6      100     0.000     0.000     0.000     0.000      107        0        0        0       16        3        0    18.766       97     40.2    7.542   -9.900     2.13    0.000    0.000       26        9     1988  Maize_Short_Soroca_6June_Optimum_26_MOHC.PRM
   Tot(9)        6        6     1989    414.3    403.4   1141.8   352.89      0.0    339.5     74.8     37.5      0.0    122.6       65    206.5    206.1      100     0.000     0.000     0.000     0.000      107        0        0        0       16        2        0    18.599       97     40.0    7.445   -9.900     2.26    0.000    0.000       26        9     1989  Maize_Short_Soroca_6June_Optimum_26_MOHC.PRM
  Tot(10)        6        6     1990    176.4    440.5   1094.6   354.16      0.0    167.9      8.5     13.1      0.0    123.5       60    210.7    211.7       98     0.000     0.000     0.000     0.000      107        0        0        0       20       12        2    16.365       91     40.6    6.645   -9.900     1.99    0.000    0.000       26        9     1990  Maize_Short_Soroca_6June_Optimum_26_MOHC.PRM
  Tot(11)        6        6     1991    371.0    403.5   1213.4   355.48      0.0    322.1     48.9     40.9      0.0    147.2       75    199.8    198.0      100     0.000     0.000     0.000     0.000      107        0        0        0       13        0        0    19.176       97     40.0    7.670   -9.900     2.21    0.000    0.000       26        9     1991  Maize_Short_Soroca_6June_Optimum_26_MOHC.PRM
  Tot(12)        6        6     1992    153.8    498.8   1261.7   356.27      0.0    153.4      0.4      0.0      0.0    126.9       53    219.7    221.8       85     0.000     0.000     0.000     0.000      107        0        0        0       15       19        8    14.630       75     40.6    5.936   -9.900     1.71    0.000    0.000       26        9     1992  Maize_Short_Soroca_6June_Optimum_26_MOHC.PRM
  Tot(13)        6        6     1993    276.6    430.4   1056.4   356.95      0.0    234.0     42.6      0.0      0.0    116.0       57    211.2    210.0      100     0.000     0.000     0.000     0.000      107        0        0        0       23        5        0    17.462       96     40.3    7.030   -9.900     2.15    0.000    0.000       26        9     1993  Maize_Short_Soroca_6June_Optimum_26_MOHC.PRM
  Tot(14)        6        6     1994    213.3    492.9   1309.0   358.63      0.0    170.1     43.2     19.9      0.0     89.2       35    245.3    245.3       95     0.000     0.000     0.000     0.000      107        0        0        0        7       23        3    18.472       82     40.9    7.557   -9.900     2.26    0.000    0.000       26        9     1994  Maize_Short_Soroca_6June_Optimum_26_MOHC.PRM
  Tot(15)        6        6     1995    377.3    450.2   1246.1   360.62      0.0    331.3     46.0     26.1      0.0    119.3       55    236.5    237.4      100     0.000     0.000     0.000     0.000      107        0        0        0       13        2        0    19.372       97     40.1    7.764   -9.900     2.18    0.000    0.000       26        9     1995  Maize_Short_Soroca_6June_Optimum_26_MOHC.PRM
  Tot(16)        6        6     1996    392.3    424.9   1100.1   362.37      0.0    340.3     52.0     22.4      0.0    133.1       61    197.5    197.6      100     0.000     0.000     0.000     0.000      107        0        0        0       24        2        0    16.650       96     40.1    6.678   -9.900     2.02    0.000    0.000       26        9     1996  Maize_Short_Soroca_6June_Optimum_26_MOHC.PRM
  Tot(17)        6        6     1997    318.9    401.6   1109.9   363.47      0.0    300.0     18.9     23.7      0.0    142.6       74    190.5    190.6      100     0.000     0.000     0.000     0.000      107        0        0        0       19        1        0    17.851       97     40.0    7.146   -9.900     2.15    0.000    0.000       26        9     1997  Maize_Short_Soroca_6June_Optimum_26_MOHC.PRM
  Tot(18)        6        6     1998    287.9    420.7   1171.6   366.50      0.0    270.1     17.8     35.9      0.0    126.6       70    221.8    221.0      100     0.000     0.000     0.000     0.000      107        0        0        0       20        2        0    17.936       97     40.1    7.196   -9.900     2.07    0.000    0.000       26        9     1998  Maize_Short_Soroca_6June_Optimum_26_MOHC.PRM
  Tot(19)        6        6     1999    165.9    483.7   1378.8   368.14      0.0    165.9      0.0      0.0      0.0    116.2       46    239.8    238.9       99     0.000     0.000     0.000     0.000      107        0        0        0        7       13        1    19.803       92     40.5    8.030   -9.900     2.26    0.000    0.000       26        9     1999  Maize_Short_Soroca_6June_Optimum_26_MOHC.PRM
  Tot(20)        6        6     2000    297.3    455.6   1161.2   369.41      0.0    282.8     14.5     20.8      0.0    148.9       68    232.4    234.0      100     0.000     0.000     0.000     0.000      107        0        0        0       20        2        0    18.630       97     40.2    7.487   -9.900     1.96    0.000    0.000       26        9     2000  Maize_Short_Soroca_6June_Optimum_26_MOHC.PRM
  Tot(21)        6        6     2001    265.2    462.1   1291.3   371.07      0.0    251.0     14.2      4.4      0.0    148.7       72    243.1    243.3       95     0.000     0.000     0.000     0.000      107        0        0        0       12        9        3    18.439       88     40.5    7.475   -9.900     1.91    0.000    0.000       26        9     2001  Maize_Short_Soroca_6June_Optimum_26_MOHC.PRM
  Tot(22)        6        6     2002    389.7    467.2   1321.1   373.16      0.0    352.6     37.1     42.5      0.0    111.1       45    233.9    233.6      100     0.000     0.000     0.000     0.000      107        0        0        0       11        4        0    19.338       93     40.0    7.735   -9.900     2.24    0.000    0.000       26        9     2002  Maize_Short_Soroca_6June_Optimum_26_MOHC.PRM
  Tot(23)        6        6     2003    334.8    489.0   1220.9   375.80      0.0    285.0     49.8     63.3      0.0    133.7       57    245.9    246.1      100     0.000     0.000     0.000     0.000      107        0        0        0       15        2        0    19.012       96     40.0    7.613   -9.900     2.01    0.000    0.000       26        9     2003  Maize_Short_Soroca_6June_Optimum_26_MOHC.PRM
  Tot(24)        6        6     2004    263.1    450.3   1178.8   377.49      0.0    242.3     20.8      9.2      0.0     93.0       39    210.9    210.9      100     0.000     0.000     0.000     0.000      107        0        0        0       15        4        0    18.718       94     40.0    7.489   -9.900     2.46    0.000    0.000       26        9     2004  Maize_Short_Soroca_6June_Optimum_26_MOHC.PRM
  Tot(25)        6        6     2005    181.1    447.2   1239.3   379.80      0.0    175.6      5.5      8.2      0.0    113.8       56    245.0    243.9       99     0.000     0.000     0.000     0.000      107        0        0        0        9        6        1    20.634       95     40.2    8.295   -9.900     2.31    0.000    0.000       26        9     2005  Maize_Short_Soroca_6June_Optimum_26_MOHC.PRM
  Tot(26)        6        6     2006    220.5    483.0   1237.4   381.90      0.0    215.5      5.0      0.0      0.0    107.4       46    249.8    248.3      100     0.000     0.000     0.000     0.000      107        0        0        0       11        7        0    19.853       94     40.2    7.983   -9.900     2.23    0.000    0.000       26        9     2006  Maize_Short_Soroca_6June_Optimum_26_MOHC.PRM
  Tot(27)        6        6     2007    185.3    532.1   1314.3   383.77      0.0    181.4      3.9      0.0      0.0    105.3       34    226.3    227.8      100     0.000     0.000     0.000     0.000      107        0        0        0       13       17        0    17.234       86     40.3    6.950   -9.900     2.10    0.000    0.000       26        9     2007  Maize_Short_Soroca_6June_Optimum_26_MOHC.PRM
  Tot(28)        6        6     2008    400.0    488.6   1252.2   385.59      0.0    330.7     69.3     52.0      0.0    121.0       50    256.1    256.9      100     0.000     0.000     0.000     0.000      107        0        0        0       15        3        0    18.626       95     40.1    7.461   -9.900     1.98    0.000    0.000       26        9     2008  Maize_Short_Soroca_6June_Optimum_26_MOHC.PRM
  Tot(29)        6        6     2009    155.7    534.4   1353.0   387.37      0.0    154.7      1.0      0.0      0.0    147.7       53    224.3    224.6       86     0.000     0.000     0.000     0.000      107        0        0        0        8       15       15    15.856       71     40.0    6.345   -9.900     1.71    0.000    0.000       26        9     2009  Maize_Short_Soroca_6June_Optimum_26_MOHC.PRM
  Tot(30)        6        6     2010    312.2    466.6   1338.8   389.85      0.0    287.9     24.3     41.7      0.0    138.3       65    249.8    247.9       99     0.000     0.000     0.000     0.000      107        0        0        0       13        6        1    19.331       95     40.4    7.809   -9.900     2.01    0.000    0.000       26        9     2010  Maize_Short_Soroca_6June_Optimum_26_MOHC.PRM
  Tot(31)        6        6     2011    175.5    501.1   1309.7   391.63      0.0    172.0      3.5      3.5      0.0    141.3       61    244.8    246.6       89     0.000     0.000     0.000     0.000      107        0        0        0        8        5       12    18.145       80     39.9    7.232   -9.900     1.87    0.000    0.000       26        9     2011  Maize_Short_Soroca_6June_Optimum_26_MOHC.PRM
  Tot(32)        6        6     2012    107.4    583.0   1401.8   393.82      0.0    105.8      1.6      3.9      0.0    104.2       29    211.3    211.3       87     0.000     0.000     0.000     0.000      107        0        0        0        7       30       13    13.847       63     40.4    5.597   -9.900     1.77    0.000    0.000       26        9     2012  Maize_Short_Soroca_6June_Optimum_26_MOHC.PRM
  Tot(33)        6        6     2013    249.3    473.0   1269.4   396.48      0.0    231.5     17.8      0.0      0.0    130.3       53    203.7    203.6       91     0.000     0.000     0.000     0.000      107        0        0        0       13       20        4    16.268       81     40.8    6.639   -9.900     1.99    0.000    0.000       26        9     2013  Maize_Short_Soroca_6June_Optimum_26_MOHC.PRM
  Tot(34)        6        6     2014    237.1    504.5   1302.8   398.55      0.0    217.1     20.0     22.3      0.0    105.9       46    262.6    262.7       95     0.000     0.000     0.000     0.000      107        0        0        0       11        6        5    19.268       89     40.2    7.737   -9.900     2.10    0.000    0.000       26        9     2014  Maize_Short_Soroca_6June_Optimum_26_MOHC.PRM
  Tot(35)        6        6     2015     75.3    590.7   1405.3   401.00      0.0     75.3      0.0      0.0      0.0     96.2       25    171.2    171.3       80     0.000     0.000     0.000     0.000      102        0        0        0        7       30       17    10.401       46     39.5    4.106   -9.900     1.57    0.000    0.000       26        9     2015  Maize_Short_Soroca_6June_Optimum_26_MOHC.PRM
  Tot(36)        6        6     2016    196.8    529.3   1373.3   403.00      0.0    193.9      2.9      1.7      0.0    155.3       59    244.0    243.9       89     0.000     0.000     0.000     0.000      107        0        0        0        9       17       12    17.045       77     40.2    6.860   -9.900     1.72    0.000    0.000       26        9     2016  Maize_Short_Soroca_6June_Optimum_26_MOHC.PRM
  Tot(37)        6        6     2017    229.7    532.7   1347.1   405.00      0.0    222.5      7.2      1.9      0.0    148.0       56    239.4    238.7       88     0.000     0.000     0.000     0.000      107        0        0        0        8       13        9    17.133       77     40.2    6.890   -9.900     1.78    0.000    0.000       26        9     2017  Maize_Short_Soroca_6June_Optimum_26_MOHC.PRM
  Tot(38)        6        6     2018    252.3    476.6   1408.2   408.00      0.0    239.0     13.3     15.2      0.0    141.3       69    276.7    277.6       98     0.000     0.000     0.000     0.000      107        0        0        0        7        1        2    21.688       95     40.0    8.684   -9.900     2.08    0.000    0.000       26        9     2018  Maize_Short_Soroca_6June_Optimum_26_MOHC.PRM
  Tot(39)        6        6     2019    166.3    540.1   1376.3   410.00      0.0    163.1      3.2      4.4      0.0    138.9       51    217.0    216.8       81     0.000     0.000     0.000     0.000      107        0        0        0        9       13       17    15.334       70     39.7    6.095   -9.900     1.71    0.000    0.000       26        9     2019  Maize_Short_Soroca_6June_Optimum_26_MOHC.PRM
  Tot(40)        6        6     2020    139.6    637.0   1516.5   412.00      0.0    134.0      5.6      0.0      0.0    125.3       31    175.2    175.3       74     0.000     0.000     0.000     0.000      107        0        0        0        8       34       14     8.635       39     37.7    3.257   -9.900     1.08    0.000    0.000       26        9     2020  Maize_Short_Soroca_6June_Optimum_26_MOHC.PRM
  Tot(41)        6        6     2021    124.4    624.8   1490.0   414.00      0.0    115.9      8.5      0.0      0.0     89.7       24    240.2    239.9       89     0.000     0.000     0.000     0.000      107        0        0        0        7       24       11    14.915       67     39.9    5.949   -9.900     1.80    0.000    0.000       26        9     2021  Maize_Short_Soroca_6June_Optimum_26_MOHC.PRM
  Tot(42)        6        6     2022    126.3    667.5   1660.6   417.00      0.0    122.0      4.3      5.4      0.0    116.1       31    217.5    217.8       77     0.000     0.000     0.000     0.000       97        0        0        0        1       20       20    11.878       49     33.6    3.989   -9.900     1.21    0.000    0.000       26        9     2022  Maize_Short_Soroca_6June_Optimum_26_MOHC.PRM
  Tot(43)        6        6     2023     55.8    708.9   1601.9   419.00      0.0     55.8      0.0      0.0      0.0     86.6       16    150.5    150.5       76     0.000     0.000     0.000     0.000       99        0        0        0        3       39       16     6.884       30     33.3    2.296   -9.900     0.99    0.000    0.000       26        9     2023  Maize_Short_Soroca_6June_Optimum_26_MOHC.PRM
  Tot(44)        6        6     2024    117.4    601.5   1492.4   421.00      0.0    117.2      0.2      0.0      0.0    122.0       35    177.9    177.9       75     0.000     0.000     0.000     0.000       90        0        0        0        1       29       20    10.055       43     26.8    2.698   -9.900     0.93    0.000    0.000       26        9     2024  Maize_Short_Soroca_6June_Optimum_26_MOHC.PRM
  Tot(45)        6        6     2025    177.4    580.3   1424.9   423.00      0.0    149.3     28.1      0.0      0.0     93.4       22    163.9    163.5       93     0.000     0.000     0.000     0.000      107        0        0        0       10       40        3    10.996       52     40.9    4.494   -9.900     1.75    0.000    0.000       26        9     2025  Maize_Short_Soroca_6June_Optimum_26_MOHC.PRM
  Tot(46)        6        6     2026    141.7    701.5   1578.3   424.00      0.0    134.5      7.2      1.2      0.0    112.5       26    190.7    191.0       72     0.000     0.000     0.000     0.000       88        0        0        0        1       28       21     8.901       42     24.6    2.193   -9.900     0.78    0.000    0.000       26        9     2026  Maize_Short_Soroca_6June_Optimum_26_MOHC.PRM
  Tot(47)        6        6     2027     38.1    685.2   1554.8   426.00      0.0     38.1      0.0      0.0      0.0     76.7       15    154.0    154.0       80     0.000     0.000     0.000     0.000       92        0        0        0        2       39       17     7.532       33     29.4    2.211   -9.900     0.98    0.000    0.000       26        9     2027  Maize_Short_Soroca_6June_Optimum_26_MOHC.PRM
  Tot(48)        6        6     2028    182.0    661.7   1496.0   428.00      0.0    144.1     37.9      1.0      0.0    111.7       22    162.4    161.7       87     0.000     0.000     0.000     0.000      107        0        0        0       10       41        7     9.473       44     40.8    3.867   -9.900     1.41    0.000    0.000       26        9     2028  Maize_Short_Soroca_6June_Optimum_26_MOHC.PRM
  Tot(49)        6        6     2029     97.3    638.9   1577.5   429.00      0.0     95.1      2.2      4.3      0.0    113.7       27    160.7    161.4       75     0.000     0.000     0.000     0.000       87        0        0        0        1       35       19     8.071       34     24.0    1.940   -9.900     0.76    0.000    0.000       26        9     2029  Maize_Short_Soroca_6June_Optimum_26_MOHC.PRM
  Tot(50)        6        6     2030     26.6    761.3   1691.6   431.00      0.0     26.6      0.0      0.0      0.0     70.1       11    144.6    144.6       82     0.000     0.000     0.000     0.000       98        0        0        0        1       44       15     6.321       26     32.5    2.057   -9.900     0.96    0.000    0.000       26        9     2030  Maize_Short_Soroca_6June_Optimum_26_MOHC.PRM
  Tot(51)        6        6     2031    132.1    653.5   1594.1   432.00      0.0    125.8      6.3      2.1      0.0    126.4       34    206.9    206.9       77     0.000     0.000     0.000     0.000       94        0        0        0        1       23       19    11.208       47     31.1    3.490   -9.900     1.06    0.000    0.000       26        9     2031  Maize_Short_Soroca_6June_Optimum_26_MOHC.PRM
  Tot(52)        6        6     2032     61.7    727.3   1651.0   433.00      0.0     60.6      1.1      0.0      0.0     82.5       14    158.2    158.1       84     0.000     0.000     0.000     0.000      107        0        0        0        4       43       10     7.895       34     40.7    3.217   -9.900     1.34    0.000    0.000       26        9     2032  Maize_Short_Soroca_6June_Optimum_26_MOHC.PRM
  Tot(53)        6        6     2033     77.6    713.9   1600.8   435.00      0.0     76.7      0.9      0.0      0.0    105.9       20    153.8    153.9       80     0.000     0.000     0.000     0.000      107        0        0        0        5       42       14     7.016       30     21.3    1.497   -9.900     0.58    0.000    0.000       26        9     2033  Maize_Short_Soroca_6June_Optimum_26_MOHC.PRM
  Tot(54)        6        6     2034    247.5    511.7   1405.1   436.00      0.0    236.1     11.4     21.6      0.0    145.8       67    258.6    257.1       89     0.000     0.000     0.000     0.000      107        0        0        0        8        6        6    18.827       84     40.2    7.559   -9.900     1.87    0.000    0.000       26        9     2034  Maize_Short_Soroca_6June_Optimum_26_MOHC.PRM
  Tot(55)        6        6     2035     80.4    640.2   1525.2   437.00      0.0     80.4      0.0      0.0      0.0    110.9       26    162.2    163.7       77     0.000     0.000     0.000     0.000       88        0        0        0        1       35       18     8.077       35     25.2    2.035   -9.900     0.76    0.000    0.000       26        9     2035  Maize_Short_Soroca_6June_Optimum_26_MOHC.PRM
  Tot(56)        6        6     2036    105.6    700.9   1573.6   438.00      0.0    104.0      1.6      2.1      0.0    125.5       24    155.9    155.9       78     0.000     0.000     0.000     0.000       98        0        0        0        6       39       16     7.319       32     34.5    2.522   -9.900     0.94    0.000    0.000       26        9     2036  Maize_Short_Soroca_6June_Optimum_26_MOHC.PRM
  Tot(57)        6        6     2037     63.8    706.4   1633.5   438.00      0.0     63.2      0.6      0.0      0.0    101.0       20    160.0    160.0       76     0.000     0.000     0.000     0.000       90        0        0        0        2       36       18     7.961       33     27.2    2.162   -9.900     0.84    0.000    0.000       26        9     2037  Maize_Short_Soroca_6June_Optimum_26_MOHC.PRM
  Tot(58)        6        6     2038    132.2    543.6   1383.9   439.00      0.0    125.2      7.0     22.9      0.0    123.1       41    178.2    178.2       77     0.000     0.000     0.000     0.000       97        0        0        0        5       26       18    11.301       48     34.2    3.864   -9.900     1.30    0.000    0.000       26        9     2038  Maize_Short_Soroca_6June_Optimum_26_MOHC.PRM
  Tot(59)        6        6     2039     52.9    713.1   1625.2   440.00      0.0     52.9      0.0      0.0      0.0     85.2       16    156.2    156.2       81     0.000     0.000     0.000     0.000      100        0        0        0        5       40       15     7.600       33     36.5    2.777   -9.900     1.16    0.000    0.000       26        9     2039  Maize_Short_Soroca_6June_Optimum_26_MOHC.PRM
  Tot(60)        6        6     2040     54.9    707.8   1596.4   440.00      0.0     54.6      0.3      1.2      0.0     85.8       17    159.5    159.5       77     0.000     0.000     0.000     0.000       96        0        0        0        1       37       16     7.922       33     31.3    2.481   -9.900     1.06    0.000    0.000       26        9     2040  Maize_Short_Soroca_6June_Optimum_26_MOHC.PRM
  Tot(61)        6        6     2041     65.0    711.2   1565.1   441.00      0.0     64.9      0.1      0.0      0.0    100.1       19    154.1    154.1       77     0.000     0.000     0.000     0.000       87        0        0        0        1       38       18     7.388       32     24.1    1.782   -9.900     0.75    0.000    0.000       26        9     2041  Maize_Short_Soroca_6June_Optimum_26_MOHC.PRM
  Tot(62)        6        6     2042     99.3    554.0   1461.7   441.00      0.0     99.2      0.1      0.0      0.0     85.7       33    236.5    236.4       80     0.000     0.000     0.000     0.000      107        0        0        0        3       15       19    15.781       65     39.6    6.249   -9.900     1.94    0.000    0.000       26        9     2042  Maize_Short_Soroca_6June_Optimum_26_MOHC.PRM
  Tot(63)        6        6     2043     81.6    648.4   1542.2   441.00      0.0     76.0      5.6      5.8      0.0     92.2       20    150.0    150.1       78     0.000     0.000     0.000     0.000       90        0        0        0        2       39       17     6.979       31     26.3    1.834   -9.900     0.80    0.000    0.000       26        9     2043  Maize_Short_Soroca_6June_Optimum_26_MOHC.PRM
  Tot(64)        6        6     2044    189.8    582.5   1485.9   442.00      0.0    176.6     13.2     14.3      0.0    172.7       52    193.6    193.6       78     0.000     0.000     0.000     0.000      100        0        0        0        6       25       19    11.735       52     37.2    4.366   -9.900     1.21    0.000    0.000       26        9     2044  Maize_Short_Soroca_6June_Optimum_26_MOHC.PRM
  Tot(65)        6        6     2045    206.2    542.8   1319.6   442.00      0.0    179.0     27.2      0.0      0.0    109.8       35    179.8    179.6       79     0.000     0.000     0.000     0.000      107        0        0        0       16       31       10    10.951       55     34.4    3.765   -9.900     1.30    0.000    0.000       26        9     2045  Maize_Short_Soroca_6June_Optimum_26_MOHC.PRM
  Tot(66)        6        6     2046     43.1    791.6   1742.0   442.00      0.0     43.1      0.0      0.0      0.0     81.7       12    151.4    151.6       86     0.000     0.000     0.000     0.000      107        0        0        0        6       43       13     7.194       31     27.8    2.003   -9.900     0.86    0.000    0.000       26        9     2046  Maize_Short_Soroca_6June_Optimum_26_MOHC.PRM
  Tot(67)        6        6     2047    111.7    673.0   1667.0   442.00      0.0    110.4      1.3      0.0      0.0    117.2       26    171.4    171.3       74     0.000     0.000     0.000     0.000      107        0        0        0        1       32       19     8.959       37     22.5    2.018   -9.900     0.70    0.000    0.000       26        9     2047  Maize_Short_Soroca_6June_Optimum_26_MOHC.PRM
  Tot(68)        6        6     2048    182.9    541.6   1380.1   442.00      0.0    180.9      2.0      0.8      0.0    127.5       45    243.4    243.5       93     0.000     0.000     0.000     0.000      107        0        0        0       12       18        6    17.298       81     40.4    6.992   -9.900     1.88    0.000    0.000       26        9     2048  Maize_Short_Soroca_6June_Optimum_26_MOHC.PRM
  Tot(69)        6        6     2049    245.2    544.6   1451.2   443.00      0.0    220.6     24.6     21.1      0.0    133.2       49    269.9    269.8       96     0.000     0.000     0.000     0.000      107        0        0        0        8       13        5    19.574       88     40.4    7.903   -9.900     1.96    0.000    0.000       26        9     2049  Maize_Short_Soroca_6June_Optimum_26_MOHC.PRM
  Tot(70)        6        6     2050    208.2    601.5   1542.7   443.00      0.0    200.7      7.5      0.6      0.0    152.9       39    198.7    197.9       86     0.000     0.000     0.000     0.000      107        0        0        0        6       36        8    12.374       54     40.8    5.046   -9.900     1.43    0.000    0.000       26        9     2050  Maize_Short_Soroca_6June_Optimum_26_MOHC.PRM
  Tot(71)        6        6     2051    135.4    649.5   1529.7   443.00      0.0    123.5     11.9     25.2      0.0    121.9       30    173.2    174.2       74     0.000     0.000     0.000     0.000       90        0        0        0        2       32       19     8.975       38     27.0    2.423   -9.900     0.84    0.000    0.000       26        9     2051  Maize_Short_Soroca_6June_Optimum_26_MOHC.PRM
  Tot(72)        6        6     2052    135.9    595.0   1569.8   443.00      0.0    135.5      0.4      0.0      0.0    136.1       40    200.3    200.3       79     0.000     0.000     0.000     0.000      107        0        0        0        4       25       18    11.824       50     40.2    4.749   -9.900     1.41    0.000    0.000       26        9     2052  Maize_Short_Soroca_6June_Optimum_26_MOHC.PRM
  Tot(73)        6        6     2053    132.8    594.7   1469.2   443.00      0.0    132.8      0.0      0.0      0.0    146.9       39    170.9    170.9       78     0.000     0.000     0.000     0.000      107        0        0        0       11       32       16     9.874       46     35.4    3.499   -9.900     1.10    0.000    0.000       26        9     2053  Maize_Short_Soroca_6June_Optimum_26_MOHC.PRM
  Tot(74)        6        6     2054     91.3    549.5   1386.9   443.00      0.0     90.4      0.9      0.0      0.0     98.7       31    200.6    200.6       84     0.000     0.000     0.000     0.000      105        0        0        0        7       24       17    13.314       58     40.2    5.350   -9.900     1.79    0.000    0.000       26        9     2054  Maize_Short_Soroca_6June_Optimum_26_MOHC.PRM
  Tot(75)        6        6     2055     96.3    633.4   1587.6   443.00      0.0     96.2      0.1      0.0      0.0     99.9       27    217.2    217.2       78     0.000     0.000     0.000     0.000      107        0        0        0        4       21       20    13.695       58     39.6    5.421   -9.900     1.71    0.000    0.000       26        9     2055  Maize_Short_Soroca_6June_Optimum_26_MOHC.PRM
  Tot(76)        6        6     2056    117.1    642.4   1536.2   442.00      0.0    107.6      9.5     10.4      0.0    105.4       27    182.8    182.8       73     0.000     0.000     0.000     0.000      107        0        0        0        6       33       18     9.838       43     40.3    3.966   -9.900     1.38    0.000    0.000       26        9     2056  Maize_Short_Soroca_6June_Optimum_26_MOHC.PRM
  Tot(77)        6        6     2057    144.8    667.9   1609.0   442.00      0.0    137.0      7.8     21.5      0.0    137.8       34    182.6    182.6       73     0.000     0.000     0.000     0.000       90        0        0        0        0       31       21     9.343       40     26.8    2.504   -9.900     0.79    0.000    0.000       26        9     2057  Maize_Short_Soroca_6June_Optimum_26_MOHC.PRM
  Tot(78)        6        6     2058     67.5    661.5   1553.5   442.00      0.0     67.1      0.4      0.0      0.0     90.0       21    176.9    176.9       75     0.000     0.000     0.000     0.000       92        0        0        0        3       30       19     9.411       42     29.0    2.728   -9.900     1.06    0.000    0.000       26        9     2058  Maize_Short_Soroca_6June_Optimum_26_MOHC.PRM
  Tot(79)        6        6     2059    131.5    634.0   1597.9   442.00      0.0    127.2      4.3      0.0      0.0     90.4       26    251.2    251.2       84     0.000     0.000     0.000     0.000      107        0        0        0        3       14       16    15.489       65     32.4    5.015   -9.900     1.47    0.000    0.000       26        9     2059  Maize_Short_Soroca_6June_Optimum_26_MOHC.PRM
  Tot(80)        6        6     2060     80.2    601.7   1497.4   442.00      0.0     79.9      0.3      0.0      0.0    101.1       28    179.2    179.2       75     0.000     0.000     0.000     0.000       94        0        0        0        1       28       19    10.436       43     31.3    3.265   -9.900     1.20    0.000    0.000       26        9     2060  Maize_Short_Soroca_6June_Optimum_26_MOHC.PRM
  Tot(81)        6        6     2061     79.3    596.9   1493.5   441.00      0.0     79.2      0.1      0.0      0.0    100.6       28    171.6    171.6       75     0.000     0.000     0.000     0.000       90        0        0        0        1       31       19     9.357       42     27.0    2.523   -9.900     0.97    0.000    0.000       26        9     2061  Maize_Short_Soroca_6June_Optimum_26_MOHC.PRM
  Tot(82)        6        6     2062    223.6    595.9   1496.0   441.00      0.0    196.8     26.8      0.0      0.0    128.3       38    228.6    228.6       85     0.000     0.000     0.000     0.000      107        0        0        0        8       23       11    14.402       64     40.3    5.808   -9.900     1.63    0.000    0.000       26        9     2062  Maize_Short_Soroca_6June_Optimum_26_MOHC.PRM
  Tot(83)        6        6     2063    121.1    598.3   1511.8   441.00      0.0    119.7      1.4      0.0      0.0    106.5       29    183.0    182.4       79     0.000     0.000     0.000     0.000      107        0        0        0        5       35       11    10.746       46     15.9    1.704   -9.900     0.59    0.000    0.000       26        9     2063  Maize_Short_Soroca_6June_Optimum_26_MOHC.PRM
  Tot(84)        6        6     2064    114.7    643.1   1533.3   440.00      0.0    109.3      5.4      0.0      0.0    102.4       24    180.4    180.1       81     0.000     0.000     0.000     0.000      107        0        0        0        6       39       10     9.603       42     40.0    3.844   -9.900     1.36    0.000    0.000       26        9     2064  Maize_Short_Soroca_6June_Optimum_26_MOHC.PRM
  Tot(85)        6        6     2065     86.7    676.6   1572.4   440.00      0.0     85.4      1.3      0.0      0.0     90.2       19    188.5    189.3       84     0.000     0.000     0.000     0.000      107        0        0        0        4       30       11    12.159       52     40.3    4.899   -9.900     1.76    0.000    0.000       26        9     2065  Maize_Short_Soroca_6June_Optimum_26_MOHC.PRM
  Tot(86)        6        6     2066    230.8    569.3   1437.2   440.00      0.0    191.9     38.9     13.1      0.0    121.7       39    232.4    232.0       89     0.000     0.000     0.000     0.000      107        0        0        0        8       28        5    16.381       74     40.8    6.687   -9.900     1.89    0.000    0.000       26        9     2066  Maize_Short_Soroca_6June_Optimum_26_MOHC.PRM
  Tot(87)        6        6     2067    253.0    585.0   1452.8   439.00      0.0    225.0     28.0      6.2      0.0     99.8       26    232.9    232.8       98     0.000     0.000     0.000     0.000      107        0        0        0        3       30        1    16.529       69     40.4    6.674   -9.900     2.01    0.000    0.000       26        9     2067  Maize_Short_Soroca_6June_Optimum_26_MOHC.PRM
  Tot(88)        6        6     2068    205.4    522.5   1394.5   439.00      0.0    190.8     14.6     23.7      0.0    136.8       55    246.9    247.0       88     0.000     0.000     0.000     0.000      107        0        0        0        4       18       11    18.170       77     40.3    7.316   -9.900     1.91    0.000    0.000       26        9     2068  Maize_Short_Soroca_6June_Optimum_26_MOHC.PRM
  Tot(89)        6        6     2069     65.8    651.3   1621.0   438.00      0.0     65.8      0.0      0.0      0.0     89.1       22    194.9    195.4       75     0.000     0.000     0.000     0.000      102        0        0        0        1       27       21    11.463       47     38.6    4.419   -9.900     1.56    0.000    0.000       26        9     2069  Maize_Short_Soroca_6June_Optimum_26_MOHC.PRM
  Tot(90)        6        6     2070    142.6    553.8   1434.7   437.00      0.0    139.9      2.7      0.0      0.0    122.8       40    224.3    223.7       88     0.000     0.000     0.000     0.000      107        0        0        0        8       30       11    15.518       69     40.8    6.326   -9.900     1.82    0.000    0.000       26        9     2070  Maize_Short_Soroca_6June_Optimum_26_MOHC.PRM
  Tot(91)        6        6     2071     90.1    571.4   1411.7   437.00      0.0     90.1      0.0      0.0      0.0    108.5       31    178.9    179.5       81     0.000     0.000     0.000     0.000      107        0        0        0        9       30       16    10.993       50     40.6    4.460   -9.900     1.55    0.000    0.000       26        9     2071  Maize_Short_Soroca_6June_Optimum_26_MOHC.PRM
  Tot(92)        6        6     2072     54.2    620.1   1497.2   436.00      0.0     54.2      0.0      0.0      0.0     79.6       21    190.1    190.1       77     0.000     0.000     0.000     0.000       99        0        0        0        2       24       19    11.730       51     35.8    4.195   -9.900     1.57    0.000    0.000       26        9     2072  Maize_Short_Soroca_6June_Optimum_26_MOHC.PRM
  Tot(93)        6        6     2073     39.3    686.7   1614.6   436.00      0.0     39.3      0.0      0.0      0.0     79.7       16    157.9    157.9       78     0.000     0.000     0.000     0.000       93        0        0        0        1       36       17     8.276       34     30.3    2.507   -9.900     1.06    0.000    0.000       26        9     2073  Maize_Short_Soroca_6June_Optimum_26_MOHC.PRM
  Tot(94)        6        6     2074     79.8    599.7   1441.9   435.00      0.0     79.8      0.0      0.0      0.0     99.0       28    179.6    179.6       75     0.000     0.000     0.000     0.000       92        0        0        0        4       27       19    10.086       43     28.9    2.919   -9.900     1.07    0.000    0.000       26        9     2074  Maize_Short_Soroca_6June_Optimum_26_MOHC.PRM
  Tot(95)        6        6     2075    140.6    532.5   1337.1   435.00      0.0    135.8      4.8      9.5      0.0    114.2       40    205.4    205.1       82     0.000     0.000     0.000     0.000      107        0        0        0       11       31       12    13.336       62     40.6    5.409   -9.900     1.69    0.000    0.000       26        9     2075  Maize_Short_Soroca_6June_Optimum_26_MOHC.PRM
  Tot(96)        6        6     2076     58.8    686.4   1603.3   434.00      0.0     58.1      0.7      2.1      0.0     89.8       18    150.1    150.3       78     0.000     0.000     0.000     0.000       89        0        0        0        0       39       17     7.074       32     25.2    1.785   -9.900     0.75    0.000    0.000       26        9     2076  Maize_Short_Soroca_6June_Optimum_26_MOHC.PRM
  Tot(97)        6        6     2077     36.5    693.3   1483.0   433.00      0.0     36.4      0.1      0.0      0.0     77.6       15    155.2    155.2       82     0.000     0.000     0.000     0.000       97        0        0        0        3       39       16     7.912       36     33.5    2.647   -9.900     1.14    0.000    0.000       26        9     2077  Maize_Short_Soroca_6June_Optimum_26_MOHC.PRM
  Tot(98)        6        6     2078    126.2    599.8   1551.7   433.00      0.0    121.5      4.7      5.8      0.0    130.7       39    189.6    189.6       74     0.000     0.000     0.000     0.000       93        0        0        0        0       24       20    11.059       48     29.7    3.289   -9.900     1.05    0.000    0.000       26        9     2078  Maize_Short_Soroca_6June_Optimum_26_MOHC.PRM
  Tot(99)        6        6     2079    108.2    601.5   1486.3   432.00      0.0    107.7      0.5      0.0      0.0    117.9       31    173.6    173.5       76     0.000     0.000     0.000     0.000      107        0        0        0        6       32       15     9.315       40     40.4    3.762   -9.900     1.29    0.000    0.000       26        9     2079  Maize_Short_Soroca_6June_Optimum_26_MOHC.PRM
 Tot(100)        6        6     2080     93.4    623.5   1501.9   432.00      0.0     93.3      0.1      0.0      0.0    105.7       26    171.3    170.9       79     0.000     0.000     0.000     0.000      107        0        0        0        4       36       14     9.490       41     40.6    3.850   -9.900     1.39    0.000    0.000       26        9     2080  Maize_Short_Soroca_6June_Optimum_26_MOHC.PRM
 Tot(101)        6        6     2081     34.4    707.8   1667.1   431.00      0.0     34.4      0.0      0.0      0.0     71.1       13    159.3    159.8       83     0.000     0.000     0.000     0.000      103        0        0        0        4       42       15     7.937       34     32.7    2.598   -9.900     1.13    0.000    0.000       26        9     2081  Maize_Short_Soroca_6June_Optimum_26_MOHC.PRM
 Tot(102)        6        6     2082     46.4    734.7   1719.0   431.00      0.0     46.4      0.0      0.0      0.0     85.0       16    149.1    149.1       75     0.000     0.000     0.000     0.000       88        0        0        0        0       39       18     6.741       27     24.1    1.627   -9.900     0.72    0.000    0.000       26        9     2082  Maize_Short_Soroca_6June_Optimum_26_MOHC.PRM
 Tot(103)        6        6     2083    116.7    629.7   1586.2   430.00      0.0    116.2      0.5      0.0      0.0    122.3       28    194.5    193.9       86     0.000     0.000     0.000     0.000      107        0        0        0        2       39       11    11.865       49     40.8    4.844   -9.900     1.53    0.000    0.000       26        9     2083  Maize_Short_Soroca_6June_Optimum_26_MOHC.PRM
 Tot(104)        6        6     2084     95.0    694.2   1661.2   429.00      0.0     91.8      3.2      2.2      0.0    123.4       25    154.7    155.3       76     0.000     0.000     0.000     0.000       89        0        0        0        1       38       18     7.262       31     25.2    1.829   -9.900     0.66    0.000    0.000       26        9     2084  Maize_Short_Soroca_6June_Optimum_26_MOHC.PRM
 Tot(105)        6        6     2085     77.0    648.5   1660.7   429.00      0.0     77.0      0.0      0.0      0.0    100.7       23    170.5    170.5       77     0.000     0.000     0.000     0.000       93        0        0        0        2       32       18     9.221       38     30.2    2.781   -9.900     1.07    0.000    0.000       26        9     2085  Maize_Short_Soroca_6June_Optimum_26_MOHC.PRM
 Tot(106)        6        6     2086    147.3    599.7   1489.0   428.00      0.0    146.5      0.8      0.0      0.0    126.6       39    222.3    221.4       78     0.000     0.000     0.000     0.000      107        0        0        0        5       28       15    13.683       59     40.5    5.538   -9.900     1.59    0.000    0.000       26        9     2086  Maize_Short_Soroca_6June_Optimum_26_MOHC.PRM
 Tot(107)        6        6     2087    164.9    603.3   1559.2   428.00      0.0    161.5      3.4      0.0      0.0    111.6       32    247.5    248.4       89     0.000     0.000     0.000     0.000      107        0        0        0        6       22        8    16.862       74     40.8    6.880   -9.900     1.92    0.000    0.000       26        9     2087  Maize_Short_Soroca_6June_Optimum_26_MOHC.PRM
 Tot(108)        6        6     2088    204.3    550.4   1407.2   427.00      0.0    199.3      5.0      0.2      0.0    131.5       47    226.1    225.6       84     0.000     0.000     0.000     0.000      107        0        0        0       11       26        8    14.441       69     36.5    5.267   -9.900     1.47    0.000    0.000       26        9     2088  Maize_Short_Soroca_6June_Optimum_26_MOHC.PRM
 Tot(109)        6        6     2089    167.6    543.8   1459.9   427.00      0.0    166.4      1.2      0.0      0.0    136.6       49    236.2    236.2       87     0.000     0.000     0.000     0.000      107        0        0        0        6       17       12    16.881       74     40.5    6.832   -9.900     1.83    0.000    0.000       26        9     2089  Maize_Short_Soroca_6June_Optimum_26_MOHC.PRM
 Tot(110)        6        6     2090    106.6    685.8   1627.6   426.00      0.0    106.6      0.0      0.0      0.0    129.9       28    170.9    171.5       76     0.000     0.000     0.000     0.000       94        0        0        0        1       33       18     9.145       41     31.2    2.854   -9.900     0.99    0.000    0.000       26        9     2090  Maize_Short_Soroca_6June_Optimum_26_MOHC.PRM
 Tot(111)        6        6     2091    229.2    480.9   1358.8   425.00      0.0    223.0      6.2      0.0      0.0    114.7       44    227.0    227.0      100     0.000     0.000     0.000     0.000      107        0        0        0       11        9        0    19.501       93     40.3    7.859   -9.900     2.30    0.000    0.000       26        9     2091  Maize_Short_Soroca_6June_Optimum_26_MOHC.PRM
 Tot(112)        6        6     2092     91.4    591.7   1462.7   425.00      0.0     91.0      0.4      0.0      0.0     98.7       29    177.0    177.0       73     0.000     0.000     0.000     0.000       90        0        0        0        2       29       20     9.654       44     26.8    2.587   -9.900     1.00    0.000    0.000       26        9     2092  Maize_Short_Soroca_6June_Optimum_26_MOHC.PRM
 Tot(113)        6        6     2093    143.3    611.9   1515.8   424.00      0.0    138.3      5.0      0.0      0.0    118.0       32    188.6    188.2       78     0.000     0.000     0.000     0.000      107        0        0        0        6       33       12    10.754       47     40.5    4.355   -9.900     1.42    0.000    0.000       26        9     2093  Maize_Short_Soroca_6June_Optimum_26_MOHC.PRM
 Tot(114)        6        6     2094    203.8    566.5   1382.6   424.00      0.0    162.0     41.8      0.0      0.0    110.9       34    182.9    183.1       75     0.000     0.000     0.000     0.000      107        0        0        0       11       28       13    11.090       52     40.3    4.474   -9.900     1.52    0.000    0.000       26        9     2094  Maize_Short_Soroca_6June_Optimum_26_MOHC.PRM
 Tot(115)        6        6     2095    184.8    655.9   1554.3   423.00      0.0    169.1     15.7      6.4      0.0    120.3       26    152.8    152.9       75     0.000     0.000     0.000     0.000       85        0        0        0        1       38       19     6.974       31     21.6    1.509   -9.900     0.60    0.000    0.000       26        9     2095  Maize_Short_Soroca_6June_Optimum_26_MOHC.PRM
 Tot(116)        6        6     2096     99.2    647.9   1652.9   423.00      0.0     98.6      0.6      0.0      0.0     98.6       23    198.0    196.7       81     0.000     0.000     0.000     0.000      107        0        0        0        1       31       13    12.611       52     40.2    5.075   -9.900     1.71    0.000    0.000       26        9     2096  Maize_Short_Soroca_6June_Optimum_26_MOHC.PRM
 Tot(117)        6        6     2097    193.0    569.9   1518.7   422.00      0.0    169.0     24.0      2.4      0.0    112.5       38    203.4    204.7       77     0.000     0.000     0.000     0.000       96        0        0        0        1       20       20    11.949       51     32.8    3.925   -9.900     1.26    0.000    0.000       26        9     2097  Maize_Short_Soroca_6June_Optimum_26_MOHC.PRM
 Tot(118)        6        6     2098     65.8    619.1   1457.1   422.00      0.0     65.8      0.0      0.0      0.0     95.9       26    180.5    180.5       76     0.000     0.000     0.000     0.000       95        0        0        0        2       26       19    10.718       47     31.9    3.424   -9.900     1.30    0.000    0.000       26        9     2098  Maize_Short_Soroca_6June_Optimum_26_MOHC.PRM
 Tot(119)        6        6     2099     45.0    778.5   1692.7   421.00      0.0     45.0      0.0      0.0      0.0     84.1       13    147.1    147.1       82     0.000     0.000     0.000     0.000      100        0        0        0        1       42       14     6.526       29     15.3    1.001   -9.900     0.45    0.000    0.000       26        9     2099  Maize_Short_Soroca_6June_Optimum_26_MOHC.PRM
