AquaCrop 7.0 (August 2022) - Output created on (date) : 24-11-2022   at (time) : 10:10:07

    RunNr     Day1   Month1    Year1     Rain      ETo       GD     CO2      Irri   Infilt   Runoff    Drain   Upflow        E     E/Ex       Tr      TrW   Tr/Trx    SaltIn   SaltOut    SaltUp  SaltProf     Cycle   SaltStr  FertStr  WeedStr  TempStr   ExpStr   StoStr  BioMass  Brelative   HI    Y(dry)  Y(fresh)    WPet      Bin     Bout     DayN   MonthN    YearN
                                           mm       mm  degC.day    ppm        mm       mm       mm       mm       mm       mm        %       mm       mm        %    ton/ha    ton/ha    ton/ha    ton/ha      days       %        %        %        %        %        %    ton/ha        %       %    ton/ha   ton/ha    kg/m3   ton/ha   ton/ha
   Tot(1)        7        5     1981    178.8    503.2   1241.2   340.11      0.0    170.0      8.8     19.7      0.0     88.2       42    267.5    266.0       89     0.000     0.000     0.000     0.000      107        0        0        0       11        5        8    18.291       83     39.7    7.262   -9.900     2.04    0.000    0.000       27        8     1981  Maize_short_Cahul_7May_Optimum_85_MPI.PRM
   Tot(2)        7        5     1982    226.7    493.1   1253.0   341.22      0.0    226.0      0.7      0.0      0.0    101.4       45    280.6    279.1      100     0.000     0.000     0.000     0.000      107        0        0        0        8        3        0    21.083       95     40.0    8.440   -9.900     2.21    0.000    0.000       27        8     1982  Maize_short_Cahul_7May_Optimum_85_MPI.PRM
   Tot(3)        7        5     1983    290.7    494.4   1282.6   342.84      0.0    264.2     26.5     26.7      0.0    101.9       47    287.3    287.1      100     0.000     0.000     0.000     0.000      107        0        0        0        6        3        0    21.239       96     40.1    8.514   -9.900     2.19    0.000    0.000       27        8     1983  Maize_short_Cahul_7May_Optimum_85_MPI.PRM
   Tot(4)        7        5     1984    204.3    469.3   1125.8   344.40      0.0    202.8      1.5      3.1      0.0    133.4       69    263.3    265.5       97     0.000     0.000     0.000     0.000      107        0        0        0       13        2        2    19.791       94     40.1    7.931   -9.900     2.00    0.000    0.000       27        8     1984  Maize_short_Cahul_7May_Optimum_85_MPI.PRM
   Tot(5)        7        5     1985    289.7    484.3   1225.0   345.87      0.0    263.2     26.5     42.7      0.0    114.2       55    279.7    277.6      100     0.000     0.000     0.000     0.000      107        0        0        0       10        1        0    20.626       97     40.0    8.250   -9.900     2.09    0.000    0.000       27        8     1985  Maize_short_Cahul_7May_Optimum_85_MPI.PRM
   Tot(6)        7        5     1986    152.5    543.3   1305.4   347.19      0.0    151.8      0.7      0.0      0.0    106.4       45    261.7    264.2       84     0.000     0.000     0.000     0.000      107        0        0        0        5        8       11    17.511       79     39.6    6.933   -9.900     1.88    0.000    0.000       27        8     1986  Maize_short_Cahul_7May_Optimum_85_MPI.PRM
   Tot(7)        7        5     1987    241.4    495.3   1193.7   348.98      0.0    233.0      8.4      0.0      0.0     96.8       50    305.7    303.2       99     0.000     0.000     0.000     0.000      107        0        0        0       13        4        1    20.812       95     40.1    8.345   -9.900     2.07    0.000    0.000       27        8     1987  Maize_short_Cahul_7May_Optimum_85_MPI.PRM
   Tot(8)        7        5     1988    149.9    506.2   1303.3   351.45      0.0    148.7      1.2      3.3      0.0    130.7       64    236.1    239.3       80     0.000     0.000     0.000     0.000      107        0        0        0        8        8       18    15.447       68     39.2    6.055   -9.900     1.65    0.000    0.000       27        8     1988  Maize_short_Cahul_7May_Optimum_85_MPI.PRM
   Tot(9)        7        5     1989    201.9    495.5   1205.1   352.89      0.0    201.5      0.4      0.0      0.0    102.1       51    296.7    295.1       97     0.000     0.000     0.000     0.000      107        0        0        0       13        4        2    20.756       93     40.2    8.345   -9.900     2.09    0.000    0.000       27        8     1989  Maize_short_Cahul_7May_Optimum_85_MPI.PRM
  Tot(10)        7        5     1990    134.9    531.5   1218.0   354.16      0.0    134.6      0.3      0.0      0.0    122.0       53    234.0    235.4       79     0.000     0.000     0.000     0.000      107        0        0        0       13       13       17    15.179       67     39.8    6.046   -9.900     1.70    0.000    0.000       27        8     1990  Maize_short_Cahul_7May_Optimum_85_MPI.PRM
  Tot(11)        7        5     1991    385.6    438.1   1229.6   355.48      0.0    339.7     45.9     69.7      0.0    119.1       77    296.0    293.8      100     0.000     0.000     0.000     0.000      107        0        0        0       15        0        0    22.432       98     40.0    8.978   -9.900     2.16    0.000    0.000       27        8     1991  Maize_short_Cahul_7May_Optimum_85_MPI.PRM
  Tot(12)        7        5     1992    170.3    523.5   1259.8   356.27      0.0    170.0      0.3      0.0      0.0    127.8       64    262.4    264.1       81     0.000     0.000     0.000     0.000      107        0        0        0       14        6       14    17.117       75     39.2    6.705   -9.900     1.72    0.000    0.000       27        8     1992  Maize_short_Cahul_7May_Optimum_85_MPI.PRM
  Tot(13)        7        5     1993    212.3    519.6   1215.6   356.95      0.0    200.6     11.7     23.7      0.0    126.2       61    265.1    263.8       86     0.000     0.000     0.000     0.000      107        0        0        0       10        6       10    17.552       81     39.7    6.964   -9.900     1.78    0.000    0.000       27        8     1993  Maize_short_Cahul_7May_Optimum_85_MPI.PRM
  Tot(14)        7        5     1994    227.8    533.6   1328.9   358.63      0.0    212.2     15.6     35.4      0.0     99.1       42    269.6    270.9       87     0.000     0.000     0.000     0.000      107        0        0        0        8       11        9    17.628       77     39.7    6.999   -9.900     1.90    0.000    0.000       27        8     1994  Maize_short_Cahul_7May_Optimum_85_MPI.PRM
  Tot(15)        7        5     1995    166.2    526.8   1338.7   360.62      0.0    162.9      3.3      3.5      0.0    105.2       47    265.1    265.0       85     0.000     0.000     0.000     0.000      107        0        0        0        7       10       13    17.334       74     39.7    6.879   -9.900     1.86    0.000    0.000       27        8     1995  Maize_short_Cahul_7May_Optimum_85_MPI.PRM
  Tot(16)        7        5     1996    151.7    562.1   1315.4   362.37      0.0    142.1      9.6      0.0      0.0    116.4       36    182.9    183.8       79     0.000     0.000     0.000     0.000      107        0        0        0        7       26       16    10.998       49     40.3    4.431   -9.900     1.48    0.000    0.000       27        8     1996  Maize_short_Cahul_7May_Optimum_85_MPI.PRM
  Tot(17)        7        5     1997    419.7    471.7   1250.0   363.47      0.0    375.1     44.6      0.3      0.0    121.8       59    281.7    281.1      100     0.000     0.000     0.000     0.000      107        0        0        0       10        2        0    22.136       97     40.0    8.862   -9.900     2.20    0.000    0.000       27        8     1997  Maize_short_Cahul_7May_Optimum_85_MPI.PRM
  Tot(18)        7        5     1998    168.8    516.5   1294.8   366.50      0.0    167.9      0.9      2.6      0.0    120.0       61    269.0    269.2       84     0.000     0.000     0.000     0.000      107        0        0        0       12        4       13    17.668       78     39.4    6.964   -9.900     1.79    0.000    0.000       27        8     1998  Maize_short_Cahul_7May_Optimum_85_MPI.PRM
  Tot(19)        7        5     1999    300.8    546.7   1379.6   368.14      0.0    283.6     17.2      0.0      0.0    112.6       50    332.5    330.4       98     0.000     0.000     0.000     0.000      107        0        0        0        7        4        2    21.754       92     40.1    8.727   -9.900     1.96    0.000    0.000       27        8     1999  Maize_short_Cahul_7May_Optimum_85_MPI.PRM
  Tot(20)        7        5     2000     73.9    617.8   1328.9   369.41      0.0     73.9      0.0      0.0      0.0     81.9       24    209.2    211.7       77     0.000     0.000     0.000     0.000      106        0        0        0        7       24       20    12.543       55     39.6    4.962   -9.900     1.71    0.000    0.000       27        8     2000  Maize_short_Cahul_7May_Optimum_85_MPI.PRM
  Tot(21)        7        5     2001    201.1    552.7   1318.6   371.07      0.0    172.7     28.4     17.8      0.0    115.8       52    262.1    261.9       80     0.000     0.000     0.000     0.000      107        0        0        0       10        3       17    16.754       72     39.0    6.535   -9.900     1.73    0.000    0.000       27        8     2001  Maize_short_Cahul_7May_Optimum_85_MPI.PRM
  Tot(22)        7        5     2002    297.9    563.7   1394.2   373.16      0.0    259.4     38.5      0.0      0.0    114.6       42    288.9    286.7       92     0.000     0.000     0.000     0.000      107        0        0        0        5       24        4    18.851       80     40.8    7.698   -9.900     1.91    0.000    0.000       27        8     2002  Maize_short_Cahul_7May_Optimum_85_MPI.PRM
  Tot(23)        7        5     2003    102.9    602.8   1413.4   375.80      0.0    102.9      0.0      0.0      0.0    101.7       29    219.7    222.0       82     0.000     0.000     0.000     0.000      107        0        0        0        3       26       16    14.151       60     40.1    5.672   -9.900     1.76    0.000    0.000       27        8     2003  Maize_short_Cahul_7May_Optimum_85_MPI.PRM
  Tot(24)        7        5     2004    257.1    519.7   1224.3   377.49      0.0    253.2      3.9      0.0      0.0    135.8       63    301.4    299.1       95     0.000     0.000     0.000     0.000      107        0        0        0       12       13        3    20.544       89     40.4    8.295   -9.900     1.90    0.000    0.000       27        8     2004  Maize_short_Cahul_7May_Optimum_85_MPI.PRM
  Tot(25)        7        5     2005    378.7    520.8   1288.0   379.80      0.0    361.0     17.7     10.1      0.0    144.1       69    326.2    325.2      100     0.000     0.000     0.000     0.000      107        0        0        0        8        3        0    22.626       97     40.1    9.071   -9.900     1.93    0.000    0.000       27        8     2005  Maize_short_Cahul_7May_Optimum_85_MPI.PRM
  Tot(26)        7        5     2006    163.6    573.8   1322.8   381.90      0.0    155.9      7.7     15.6      0.0    122.3       46    230.5    233.3       76     0.000     0.000     0.000     0.000      107        0        0        0        7       19       18    14.128       60     39.9    5.635   -9.900     1.60    0.000    0.000       27        8     2006  Maize_short_Cahul_7May_Optimum_85_MPI.PRM
  Tot(27)        7        5     2007    116.6    680.4   1503.0   383.77      0.0    115.3      1.3      0.0      0.0    111.5       28    210.4    210.6       75     0.000     0.000     0.000     0.000      107        0        0        0        1       28       19    10.964       46     40.1    4.393   -9.900     1.36    0.000    0.000       27        8     2007  Maize_short_Cahul_7May_Optimum_85_MPI.PRM
  Tot(28)        7        5     2008    125.7    607.1   1356.8   385.59      0.0    125.7      0.0      0.0      0.0    100.0       36    250.4    250.7       77     0.000     0.000     0.000     0.000      107        0        0        0        4       20       19    14.861       62     39.6    5.888   -9.900     1.68    0.000    0.000       27        8     2008  Maize_short_Cahul_7May_Optimum_85_MPI.PRM
  Tot(29)        7        5     2009    135.6    616.1   1391.5   387.37      0.0    135.0      0.6      0.0      0.0     91.0       31    264.7    264.8       82     0.000     0.000     0.000     0.000      107        0        0        0        5       12       17    15.562       65     39.5    6.144   -9.900     1.73    0.000    0.000       27        8     2009  Maize_short_Cahul_7May_Optimum_85_MPI.PRM
  Tot(30)        7        5     2010    259.9    550.9   1434.7   389.85      0.0    241.6     18.3      0.8      0.0    128.8       57    321.2    319.6       94     0.000     0.000     0.000     0.000      107        0        0        0        7        2        5    21.119       90     39.9    8.432   -9.900     1.87    0.000    0.000       27        8     2010  Maize_short_Cahul_7May_Optimum_85_MPI.PRM
  Tot(31)        7        5     2011    181.1    568.4   1367.2   391.63      0.0    176.8      4.3      2.4      0.0    123.9       52    273.1    274.0       82     0.000     0.000     0.000     0.000      107        0        0        0        4        6       13    17.670       76     39.7    7.011   -9.900     1.77    0.000    0.000       27        8     2011  Maize_short_Cahul_7May_Optimum_85_MPI.PRM
  Tot(32)        7        5     2012    233.1    640.5   1478.9   393.82      0.0    227.4      5.7      5.3      0.0    161.6       56    262.1    261.1       75     0.000     0.000     0.000     0.000      107        0        0        0        5       18       20    14.463       60     39.6    5.722   -9.900     1.35    0.000    0.000       27        8     2012  Maize_short_Cahul_7May_Optimum_85_MPI.PRM
  Tot(33)        7        5     2013    235.4    581.7   1439.0   396.48      0.0    222.9     12.5      0.0      0.0    123.0       50    300.1    300.6       85     0.000     0.000     0.000     0.000      107        0        0        0        3        6       11    19.124       79     39.4    7.534   -9.900     1.78    0.000    0.000       27        8     2013  Maize_short_Cahul_7May_Optimum_85_MPI.PRM
  Tot(34)        7        5     2014    237.3    550.5   1373.2   398.55      0.0    233.6      3.7      5.5      0.0    144.3       67    295.7    293.8       86     0.000     0.000     0.000     0.000      107        0        0        0        5        7       10    19.257       81     39.8    7.665   -9.900     1.74    0.000    0.000       27        8     2014  Maize_short_Cahul_7May_Optimum_85_MPI.PRM
  Tot(35)        7        5     2015    139.4    626.7   1394.8   402.00      0.0    138.0      1.4      0.0      0.0     98.5       32    250.1    252.4       78     0.000     0.000     0.000     0.000      107        0        0        0        5       12       14    14.896       63     39.4    5.864   -9.900     1.68    0.000    0.000       27        8     2015  Maize_short_Cahul_7May_Optimum_85_MPI.PRM
  Tot(36)        7        5     2016    181.5    571.0   1373.9   404.00      0.0    180.8      0.7      0.3      0.0    147.1       66    254.5    254.7       74     0.000     0.000     0.000     0.000      107        0        0        0        8       11       21    15.251       64     39.3    5.991   -9.900     1.49    0.000    0.000       27        8     2016  Maize_short_Cahul_7May_Optimum_85_MPI.PRM
  Tot(37)        7        5     2017    266.4    570.6   1365.8   407.00      0.0    238.1     28.3      0.0      0.0    103.1       46    341.8    340.6       94     0.000     0.000     0.000     0.000      107        0        0        0        7        5        5    21.464       90     40.1    8.609   -9.900     1.94    0.000    0.000       27        8     2017  Maize_short_Cahul_7May_Optimum_85_MPI.PRM
  Tot(38)        7        5     2018    180.2    562.5   1480.2   410.00      0.0    173.9      6.3      1.1      0.0     97.7       37    289.9    290.5       91     0.000     0.000     0.000     0.000      107        0        0        0        3       10        6    20.287       84     40.1    8.128   -9.900     2.10    0.000    0.000       27        8     2018  Maize_short_Cahul_7May_Optimum_85_MPI.PRM
  Tot(39)        7        5     2019    187.7    591.3   1433.5   413.00      0.0    186.5      1.2      1.0      0.0    157.7       62    253.3    254.2       76     0.000     0.000     0.000     0.000      107        0        0        0        3       15       19    15.756       65     39.4    6.214   -9.900     1.51    0.000    0.000       27        8     2019  Maize_short_Cahul_7May_Optimum_85_MPI.PRM
  Tot(40)        7        5     2020    177.3    514.3   1208.8   416.00      0.0    159.6     17.7     27.6      0.0    104.0       51    246.3    246.4       82     0.000     0.000     0.000     0.000      107        0        0        0       12       10       15    16.545       71     39.8    6.581   -9.900     1.88    0.000    0.000       27        8     2020  Maize_short_Cahul_7May_Optimum_85_MPI.PRM
  Tot(41)        7        5     2021    189.4    474.4   1060.9   419.00      0.0    186.4      3.0      2.6      0.0     94.6       47    263.5    260.4      100     0.000     0.000     0.000     0.000      107        0        0        0       18        1        0    20.259       97     40.0    8.105   -9.900     2.26    0.000    0.000       27        8     2021  Maize_short_Cahul_7May_Optimum_85_MPI.PRM
  Tot(42)        7        5     2022    137.1    517.4   1241.2   422.00      0.0    136.3      0.8      0.0      0.0    105.7       49    251.6    254.5       85     0.000     0.000     0.000     0.000      107        0        0        0       11        3       12    18.092       79     39.6    7.168   -9.900     2.01    0.000    0.000       27        8     2022  Maize_short_Cahul_7May_Optimum_85_MPI.PRM
  Tot(43)        7        5     2023    255.1    490.2   1118.5   425.00      0.0    210.7     44.4      0.0      0.0     88.3       40    264.5    262.1       98     0.000     0.000     0.000     0.000      107        0        0        0       20       23        1    19.461       86     40.9    7.957   -9.900     2.26    0.000    0.000       27        8     2023  Maize_short_Cahul_7May_Optimum_85_MPI.PRM
  Tot(44)        7        5     2024    153.5    479.3   1082.1   428.00      0.0    153.2      0.3      0.0      0.0    108.5       53    243.4    245.4       91     0.000     0.000     0.000     0.000      107        0        0        0       15        8        7    18.617       85     40.0    7.445   -9.900     2.12    0.000    0.000       27        8     2024  Maize_short_Cahul_7May_Optimum_85_MPI.PRM
  Tot(45)        7        5     2025    176.7    494.6   1146.9   431.00      0.0    156.8     19.9      0.0      0.0     82.0       37    267.9    267.5       97     0.000     0.000     0.000     0.000      107        0        0        0       17       13        2    20.314       88     40.3    8.192   -9.900     2.34    0.000    0.000       27        8     2025  Maize_short_Cahul_7May_Optimum_85_MPI.PRM
  Tot(46)        7        5     2026    209.0    529.3   1263.4   435.00      0.0    200.3      8.7      1.9      0.0    103.9       43    271.3    269.8       93     0.000     0.000     0.000     0.000      107        0        0        0       11       11        4    20.143       86     40.3    8.121   -9.900     2.16    0.000    0.000       27        8     2026  Maize_short_Cahul_7May_Optimum_85_MPI.PRM
  Tot(47)        7        5     2027    302.8    440.6   1072.2   438.00      0.0    276.6     26.2     32.1      0.0     99.0       54    254.5    254.2      100     0.000     0.000     0.000     0.000      107        0        0        0       16        2        0    21.362       97     40.0    8.550   -9.900     2.42    0.000    0.000       27        8     2027  Maize_short_Cahul_7May_Optimum_85_MPI.PRM
  Tot(48)        7        5     2028    132.8    486.7   1123.2   442.00      0.0    132.6      0.2      0.0      0.0    112.6       62    242.9    245.7       83     0.000     0.000     0.000     0.000      107        0        0        0       15        6       14    17.778       76     39.6    7.036   -9.900     1.98    0.000    0.000       27        8     2028  Maize_short_Cahul_7May_Optimum_85_MPI.PRM
  Tot(49)        7        5     2029    247.1    433.4   1132.9   445.00      0.0    218.9     28.2      4.9      0.0     90.8       47    242.5    241.7      100     0.000     0.000     0.000     0.000      107        0        0        0       13        3        0    21.987       96     40.0    8.795   -9.900     2.64    0.000    0.000       27        8     2029  Maize_short_Cahul_7May_Optimum_85_MPI.PRM
  Tot(50)        7        5     2030    151.1    479.3   1043.8   449.00      0.0    150.2      0.9      0.0      0.0    101.7       54    244.8    243.8       91     0.000     0.000     0.000     0.000      107        0        0        0       20        6        6    18.394       85     40.2    7.388   -9.900     2.13    0.000    0.000       27        8     2030  Maize_short_Cahul_7May_Optimum_85_MPI.PRM
  Tot(51)        7        5     2031    316.5    449.1   1107.7   452.00      0.0    261.1     55.4      9.5      0.0    106.9       59    257.4    258.0      100     0.000     0.000     0.000     0.000      107        0        0        0       16        1        0    21.124       97     40.0    8.450   -9.900     2.32    0.000    0.000       27        8     2031  Maize_short_Cahul_7May_Optimum_85_MPI.PRM
  Tot(52)        7        5     2032    129.0    553.3   1228.8   456.00      0.0    121.5      7.5      8.5      0.0     91.3       42    246.8    248.3       77     0.000     0.000     0.000     0.000      107        0        0        0       12       11       18    16.134       68     39.6    6.388   -9.900     1.89    0.000    0.000       27        8     2032  Maize_short_Cahul_7May_Optimum_85_MPI.PRM
  Tot(53)        7        5     2033    343.6    477.8   1096.2   460.00      0.0    309.4     34.2     55.5      0.0    110.9       63    294.3    293.0      100     0.000     0.000     0.000     0.000      107        0        0        0       16        3        0    22.179       96     40.2    8.910   -9.900     2.20    0.000    0.000       27        8     2033  Maize_short_Cahul_7May_Optimum_85_MPI.PRM
  Tot(54)        7        5     2034    192.7    527.5   1287.2   464.00      0.0    184.9      7.8      0.0      0.0    104.8       47    283.4    283.7       91     0.000     0.000     0.000     0.000      107        0        0        0        7       14        6    19.643       82     40.3    7.909   -9.900     2.04    0.000    0.000       27        8     2034  Maize_short_Cahul_7May_Optimum_85_MPI.PRM
  Tot(55)        7        5     2035    174.3    499.6   1116.0   468.00      0.0    163.5     10.8     32.4      0.0    130.0       65    222.4    223.6       80     0.000     0.000     0.000     0.000      106        0        0        0       19       13       19    15.119       64     39.7    5.996   -9.900     1.70    0.000    0.000       27        8     2035  Maize_short_Cahul_7May_Optimum_85_MPI.PRM
  Tot(56)        7        5     2036    114.3    627.4   1301.6   472.00      0.0    110.4      3.9     13.9      0.0    117.6       34    188.3    188.3       74     0.000     0.000     0.000     0.000       94        0        0        0       14       26       20    10.950       45     30.9    3.383   -9.900     1.15    0.000    0.000       27        8     2036  Maize_short_Cahul_7May_Optimum_85_MPI.PRM
  Tot(57)        7        5     2037    226.8    457.5   1132.6   476.00      0.0    210.9     15.9     22.9      0.0    131.6       76    257.4    256.9       92     0.000     0.000     0.000     0.000      107        0        0        0       17        0        5    21.084       91     39.9    8.409   -9.900     2.16    0.000    0.000       27        8     2037  Maize_short_Cahul_7May_Optimum_85_MPI.PRM
  Tot(58)        7        5     2038    162.0    562.0   1228.0   481.00      0.0    154.3      7.7      0.0      0.0    101.5       41    257.4    254.9       84     0.000     0.000     0.000     0.000      107        0        0        0       14       13       10    17.591       76     40.4    7.099   -9.900     1.98    0.000    0.000       27        8     2038  Maize_short_Cahul_7May_Optimum_85_MPI.PRM
  Tot(59)        7        5     2039    245.2    458.2   1212.6   485.00      0.0    236.0      9.2      0.0      0.0    118.0       65    274.7    275.0      100     0.000     0.000     0.000     0.000      107        0        0        0        7        5        0    22.620       96     40.1    9.069   -9.900     2.31    0.000    0.000       27        8     2039  Maize_short_Cahul_7May_Optimum_85_MPI.PRM
  Tot(60)        7        5     2040    268.9    430.4   1066.6   489.00      0.0    235.2     33.7     57.4      0.0    110.8       76    258.5    258.8       96     0.000     0.000     0.000     0.000      107        0        0        0       19        1        3    21.437       94     40.1    8.586   -9.900     2.32    0.000    0.000       27        8     2040  Maize_short_Cahul_7May_Optimum_85_MPI.PRM
  Tot(61)        7        5     2041    250.4    532.9   1228.6   494.00      0.0    229.3     21.1      0.0      0.0     96.8       41    284.6    285.2       96     0.000     0.000     0.000     0.000      107        0        0        0       10       11        3    20.784       88     40.2    8.360   -9.900     2.19    0.000    0.000       27        8     2041  Maize_short_Cahul_7May_Optimum_85_MPI.PRM
  Tot(62)        7        5     2042    227.1    505.0   1210.1   499.00      0.0    210.5     16.6      0.0      0.0    101.0       42    266.1    265.3      100     0.000     0.000     0.000     0.000      107        0        0        0       10       10        0    21.874       92     40.2    8.787   -9.900     2.39    0.000    0.000       27        8     2042  Maize_short_Cahul_7May_Optimum_85_MPI.PRM
  Tot(63)        7        5     2043    196.2    466.3   1219.4   504.00      0.0    192.9      3.3      0.0      0.0    101.7       62    290.5    290.8       96     0.000     0.000     0.000     0.000      107        0        0        0       13        3        3    22.430       93     40.2    9.007   -9.900     2.30    0.000    0.000       27        8     2043  Maize_short_Cahul_7May_Optimum_85_MPI.PRM
  Tot(64)        7        5     2044    181.6    519.5   1198.3   508.00      0.0    174.7      6.9     17.7      0.0    111.3       52    249.6    250.7       85     0.000     0.000     0.000     0.000      107        0        0        0       13       15       11    17.413       73     40.2    6.993   -9.900     1.94    0.000    0.000       27        8     2044  Maize_short_Cahul_7May_Optimum_85_MPI.PRM
  Tot(65)        7        5     2045    147.8    542.1   1268.7   513.00      0.0    144.1      3.7     10.7      0.0    127.7       51    219.0    220.0       78     0.000     0.000     0.000     0.000      107        0        0        0        9       23       17    15.297       62     40.3    6.167   -9.900     1.78    0.000    0.000       27        8     2045  Maize_short_Cahul_7May_Optimum_85_MPI.PRM
  Tot(66)        7        5     2046    213.4    460.6   1206.4   519.00      0.0    206.9      6.5      0.0      0.0    101.5       57    280.0    278.5      100     0.000     0.000     0.000     0.000      107        0        0        0       11        1        0    23.275       97     40.0    9.310   -9.900     2.44    0.000    0.000       27        8     2046  Maize_short_Cahul_7May_Optimum_85_MPI.PRM
  Tot(67)        7        5     2047    280.8    457.8   1163.0   524.00      0.0    263.3     17.5      0.0      0.0    118.6       63    266.1    266.1      100     0.000     0.000     0.000     0.000      107        0        0        0       10       12        0    22.176       95     40.7    9.020   -9.900     2.34    0.000    0.000       27        8     2047  Maize_short_Cahul_7May_Optimum_85_MPI.PRM
  Tot(68)        7        5     2048    106.1    559.7   1323.1   529.00      0.0    106.0      0.1      0.0      0.0    105.7       42    216.0    217.6       76     0.000     0.000     0.000     0.000      107        0        0        0        8       16       19    14.533       59     39.9    5.796   -9.900     1.80    0.000    0.000       27        8     2048  Maize_short_Cahul_7May_Optimum_85_MPI.PRM
  Tot(69)        7        5     2049    188.2    504.7   1192.9   535.00      0.0    184.3      3.9      0.0      0.0     92.6       48    287.4    285.4       96     0.000     0.000     0.000     0.000      107        0        0        0       14        6        3    21.221       92     40.3    8.542   -9.900     2.25    0.000    0.000       27        8     2049  Maize_short_Cahul_7May_Optimum_85_MPI.PRM
  Tot(70)        7        5     2050    145.7    514.5   1249.4   541.00      0.0    145.4      0.3      0.0      0.0     88.5       40    266.7    267.7       92     0.000     0.000     0.000     0.000      107        0        0        0       10        7        5    21.101       88     40.2    8.472   -9.900     2.39    0.000    0.000       27        8     2050  Maize_short_Cahul_7May_Optimum_85_MPI.PRM
  Tot(71)        7        5     2051    283.1    495.8   1159.8   546.00      0.0    266.1     17.0     19.4      0.0    127.6       67    291.9    290.4       98     0.000     0.000     0.000     0.000      107        0        0        0       12        2        1    22.581       95     40.0    9.037   -9.900     2.15    0.000    0.000       27        8     2051  Maize_short_Cahul_7May_Optimum_85_MPI.PRM
  Tot(72)        7        5     2052     72.3    542.2   1255.6   552.00      0.0     72.3      0.0      0.0      0.0     69.8       31    224.6    226.8       77     0.000     0.000     0.000     0.000      107        0        0        0        9        9       15    16.490       70     39.6    6.533   -9.900     2.22    0.000    0.000       27        8     2052  Maize_short_Cahul_7May_Optimum_85_MPI.PRM
  Tot(73)        7        5     2053    159.6    562.2   1332.7   558.00      0.0    159.2      0.4      0.0      0.0    106.4       44    269.8    269.5       86     0.000     0.000     0.000     0.000      107        0        0        0        7       10       11    18.335       77     40.0    7.325   -9.900     1.95    0.000    0.000       27        8     2053  Maize_short_Cahul_7May_Optimum_85_MPI.PRM
  Tot(74)        7        5     2054    166.2    545.1   1265.0   564.00      0.0    154.7     11.5     33.7      0.0    118.2       49    222.7    223.7       80     0.000     0.000     0.000     0.000      105        0        0        0       11       15       19    15.414       62     39.6    6.110   -9.900     1.80    0.000    0.000       27        8     2054  Maize_short_Cahul_7May_Optimum_85_MPI.PRM
  Tot(75)        7        5     2055    171.3    508.5   1214.8   571.00      0.0    162.3      9.0      5.9      0.0    106.9       57    263.8    262.6       87     0.000     0.000     0.000     0.000      107        0        0        0       13        6        9    19.861       84     40.2    7.975   -9.900     2.15    0.000    0.000       27        8     2055  Maize_short_Cahul_7May_Optimum_85_MPI.PRM
  Tot(76)        7        5     2056    132.2    548.8   1287.7   577.00      0.0    125.6      6.6      0.0      0.0     77.4       29    257.7    258.4       90     0.000     0.000     0.000     0.000      107        0        0        0        6       18        8    19.249       79     40.5    7.793   -9.900     2.33    0.000    0.000       27        8     2056  Maize_short_Cahul_7May_Optimum_85_MPI.PRM
  Tot(77)        7        5     2057    124.4    572.2   1290.2   583.00      0.0    123.6      0.8      0.0      0.0     93.9       38    243.5    242.6       79     0.000     0.000     0.000     0.000      107        0        0        0        9        9       14    17.208       72     39.7    6.830   -9.900     2.02    0.000    0.000       27        8     2057  Maize_short_Cahul_7May_Optimum_85_MPI.PRM
  Tot(78)        7        5     2058    279.0    455.6   1171.3   590.00      0.0    252.4     26.6      2.4      0.0     98.4       54    264.7    265.8      100     0.000     0.000     0.000     0.000      107        0        0        0       16        4        0    22.350       96     40.3    8.999   -9.900     2.48    0.000    0.000       27        8     2058  Maize_short_Cahul_7May_Optimum_85_MPI.PRM
  Tot(79)        7        5     2059    149.3    537.1   1291.9   597.00      0.0    141.4      7.9      5.8      0.0    101.0       53    259.8    259.7       80     0.000     0.000     0.000     0.000      107        0        0        0       13        2       15    18.502       76     39.2    7.247   -9.900     2.01    0.000    0.000       27        8     2059  Maize_short_Cahul_7May_Optimum_85_MPI.PRM
  Tot(80)        7        5     2060    141.6    548.6   1251.8   604.00      0.0    133.7      7.9      5.6      0.0     83.9       34    242.1    241.3       86     0.000     0.000     0.000     0.000      107        0        0        0        9       16       10    17.247       72     40.3    6.948   -9.900     2.13    0.000    0.000       27        8     2060  Maize_short_Cahul_7May_Optimum_85_MPI.PRM
  Tot(81)        7        5     2061    152.2    495.9   1176.0   611.00      0.0    150.6      1.6      0.1      0.0    112.0       59    245.9    244.4       86     0.000     0.000     0.000     0.000      107        0        0        0       14        4        9    19.172       82     39.8    7.622   -9.900     2.13    0.000    0.000       27        8     2061  Maize_short_Cahul_7May_Optimum_85_MPI.PRM
  Tot(82)        7        5     2062    143.8    509.0   1274.4   618.00      0.0    142.9      0.9      0.0      0.0     94.5       47    259.8    261.5       88     0.000     0.000     0.000     0.000      107        0        0        0        7        6        8    20.828       84     39.8    8.298   -9.900     2.34    0.000    0.000       27        8     2062  Maize_short_Cahul_7May_Optimum_85_MPI.PRM
  Tot(83)        7        5     2063    159.4    530.8   1343.4   625.00      0.0    157.8      1.6      0.0      0.0     97.7       42    255.7    253.9       87     0.000     0.000     0.000     0.000      107        0        0        0        6       10        9    19.935       80     39.8    7.930   -9.900     2.24    0.000    0.000       27        8     2063  Maize_short_Cahul_7May_Optimum_85_MPI.PRM
  Tot(84)        7        5     2064    220.3    518.4   1358.1   632.00      0.0    211.1      9.2      4.8      0.0    120.9       64    293.1    295.5       92     0.000     0.000     0.000     0.000      107        0        0        0        7        5        6    21.847       88     40.2    8.780   -9.900     2.12    0.000    0.000       27        8     2064  Maize_short_Cahul_7May_Optimum_85_MPI.PRM
  Tot(85)        7        5     2065    164.3    523.9   1273.4   639.00      0.0    158.3      6.0      0.0      0.0     74.6       33    268.6    266.2       92     0.000     0.000     0.000     0.000      107        0        0        0        8        6        5    20.726       86     39.9    8.273   -9.900     2.41    0.000    0.000       27        8     2065  Maize_short_Cahul_7May_Optimum_85_MPI.PRM
  Tot(86)        7        5     2066    107.3    636.1   1452.6   647.00      0.0    104.7      2.6      0.0      0.0    107.6       29    182.5    185.5       75     0.000     0.000     0.000     0.000      107        0        0        0        5       27       18    11.507       46     33.9    3.901   -9.900     1.34    0.000    0.000       27        8     2066  Maize_short_Cahul_7May_Optimum_85_MPI.PRM
  Tot(87)        7        5     2067    175.4    524.9   1283.2   654.00      0.0    171.9      3.5      0.0      0.0     84.9       37    276.4    275.4       96     0.000     0.000     0.000     0.000      107        0        0        0        9       10        3    21.704       90     40.5    8.781   -9.900     2.43    0.000    0.000       27        8     2067  Maize_short_Cahul_7May_Optimum_85_MPI.PRM
  Tot(88)        7        5     2068    127.6    533.4   1330.5   662.00      0.0    124.5      3.1      0.0      0.0    112.0       43    188.2    189.2       78     0.000     0.000     0.000     0.000       99        0        0        0        7       20       19    13.136       53     36.0    4.724   -9.900     1.63    0.000    0.000       27        8     2068  Maize_short_Cahul_7May_Optimum_85_MPI.PRM
  Tot(89)        7        5     2069    165.6    542.6   1361.8   669.00      0.0    163.3      2.3      1.9      0.0    114.4       51    257.8    256.8       85     0.000     0.000     0.000     0.000      107        0        0        0        5       20       12    18.386       74     40.7    7.475   -9.900     2.01    0.000    0.000       27        8     2069  Maize_short_Cahul_7May_Optimum_85_MPI.PRM
  Tot(90)        7        5     2070     32.4    619.2   1366.2   677.00      0.0     32.3      0.1      0.5      0.0     64.6       19    180.0    181.0       76     0.000     0.000     0.000     0.000       96        0        0        0       11       25       19    11.955       48     32.8    3.924   -9.900     1.61    0.000    0.000       27        8     2070  Maize_short_Cahul_7May_Optimum_85_MPI.PRM
  Tot(91)        7        5     2071    100.5    610.2   1451.1   685.00      0.0    100.1      0.4      0.0      0.0    113.2       35    202.5    202.5       79     0.000     0.000     0.000     0.000      103        0        0        0        3       19       18    13.964       56     40.0    5.580   -9.900     1.78    0.000    0.000       27        8     2071  Maize_short_Cahul_7May_Optimum_85_MPI.PRM
  Tot(92)        7        5     2072    103.3    651.5   1430.2   693.00      0.0     99.0      4.3     11.0      0.0    113.1       31    186.3    186.3       75     0.000     0.000     0.000     0.000       94        0        0        0        7       28       20    11.201       45     30.9    3.456   -9.900     1.18    0.000    0.000       27        8     2072  Maize_short_Cahul_7May_Optimum_85_MPI.PRM
  Tot(93)        7        5     2073    240.2    436.4   1175.4   701.00      0.0    200.6     39.6     41.5      0.0    109.6       72    250.7    249.1       96     0.000     0.000     0.000     0.000      107        0        0        0       11        3        3    22.003       94     40.1    8.826   -9.900     2.45    0.000    0.000       27        8     2073  Maize_short_Cahul_7May_Optimum_85_MPI.PRM
  Tot(94)        7        5     2074    197.6    498.4   1273.9   709.00      0.0    190.4      7.2      2.0      0.0     97.1       45    270.6    269.8      100     0.000     0.000     0.000     0.000      107        0        0        0        8        7        0    22.955       95     40.2    9.238   -9.900     2.51    0.000    0.000       27        8     2074  Maize_short_Cahul_7May_Optimum_85_MPI.PRM
  Tot(95)        7        5     2075    235.8    518.6   1369.9   717.00      0.0    214.6     21.2     42.0      0.0    120.3       59    268.3    269.4       90     0.000     0.000     0.000     0.000      107        0        0        0        7        1        7    21.453       87     39.9    8.550   -9.900     2.20    0.000    0.000       27        8     2075  Maize_short_Cahul_7May_Optimum_85_MPI.PRM
  Tot(96)        7        5     2076    154.4    582.3   1427.0   725.00      0.0    140.2     14.2      0.0      0.0     80.5       28    234.7    234.1       83     0.000     0.000     0.000     0.000      107        0        0        0       10       25       11    16.240       66     40.6    6.589   -9.900     2.09    0.000    0.000       27        8     2076  Maize_short_Cahul_7May_Optimum_85_MPI.PRM
  Tot(97)        7        5     2077    193.1    529.2   1404.0   733.00      0.0    187.2      5.9     15.4      0.0    128.4       63    262.4    263.6       86     0.000     0.000     0.000     0.000      107        0        0        0        5        6       11    19.896       80     39.8    7.927   -9.900     2.03    0.000    0.000       27        8     2077  Maize_short_Cahul_7May_Optimum_85_MPI.PRM
  Tot(98)        7        5     2078    221.4    536.6   1396.9   742.00      0.0    210.3     11.1     11.5      0.0    102.2       46    292.2    291.4       97     0.000     0.000     0.000     0.000      107        0        0        0        5        5        3    22.799       93     40.1    9.133   -9.900     2.32    0.000    0.000       27        8     2078  Maize_short_Cahul_7May_Optimum_85_MPI.PRM
  Tot(99)        7        5     2079    132.5    532.8   1270.6   750.00      0.0    128.8      3.7      0.0      0.0     80.0       36    260.1    260.4       89     0.000     0.000     0.000     0.000      107        0        0        0        9       12        7    20.185       83     40.1    8.098   -9.900     2.38    0.000    0.000       27        8     2079  Maize_short_Cahul_7May_Optimum_85_MPI.PRM
 Tot(100)        7        5     2080     99.7    588.5   1447.5   758.00      0.0     98.5      1.2      0.0      0.0     88.9       34    231.6    232.4       77     0.000     0.000     0.000     0.000      107        0        0        0        5       16       18    16.279       66     39.9    6.488   -9.900     2.02    0.000    0.000       27        8     2080  Maize_short_Cahul_7May_Optimum_85_MPI.PRM
 Tot(101)        7        5     2081    173.1    507.7   1302.8   767.00      0.0    167.8      5.3      1.4      0.0    105.0       51    257.7    255.9       92     0.000     0.000     0.000     0.000      107        0        0        0        7        4        5    20.836       87     40.0    8.330   -9.900     2.30    0.000    0.000       27        8     2081  Maize_short_Cahul_7May_Optimum_85_MPI.PRM
 Tot(102)        7        5     2082    114.2    590.4   1438.7   775.00      0.0    112.5      1.7      4.1      0.0    111.7       42    218.4    220.7       77     0.000     0.000     0.000     0.000      107        0        0        0        6       20       21    14.508       59     39.4    5.718   -9.900     1.73    0.000    0.000       27        8     2082  Maize_short_Cahul_7May_Optimum_85_MPI.PRM
 Tot(103)        7        5     2083    156.1    543.7   1451.2   784.00      0.0    146.8      9.3     13.9      0.0     90.7       43    262.4    261.8       86     0.000     0.000     0.000     0.000      107        0        0        0        4        2       11    20.047       81     39.7    7.950   -9.900     2.25    0.000    0.000       27        8     2083  Maize_short_Cahul_7May_Optimum_85_MPI.PRM
 Tot(104)        7        5     2084    171.1    494.5   1383.5   792.00      0.0    159.8     11.3     17.9      0.0     99.5       50    252.0    251.4       92     0.000     0.000     0.000     0.000      107        0        0        0        5        3        5    21.504       89     40.0    8.599   -9.900     2.45    0.000    0.000       27        8     2084  Maize_short_Cahul_7May_Optimum_85_MPI.PRM
 Tot(105)        7        5     2085     80.1    580.9   1383.8   801.00      0.0     79.6      0.5      0.0      0.0     81.3       33    222.0    223.3       78     0.000     0.000     0.000     0.000      107        0        0        0        5        7       18    16.322       67     39.1    6.384   -9.900     2.10    0.000    0.000       27        8     2085  Maize_short_Cahul_7May_Optimum_85_MPI.PRM
 Tot(106)        7        5     2086     86.4    640.4   1508.8   810.00      0.0     85.6      0.8      5.6      0.0     92.3       29    201.1    201.1       76     0.000     0.000     0.000     0.000       97        0        0        0        3       20       20    12.216       50     33.9    4.143   -9.900     1.43    0.000    0.000       27        8     2086  Maize_short_Cahul_7May_Optimum_85_MPI.PRM
 Tot(107)        7        5     2087    147.2    512.2   1342.2   818.00      0.0    140.6      6.6      0.0      0.0     97.2       44    235.0    233.3       87     0.000     0.000     0.000     0.000      107        0        0        0        9       11        8    19.083       80     40.4    7.717   -9.900     2.32    0.000    0.000       27        8     2087  Maize_short_Cahul_7May_Optimum_85_MPI.PRM
 Tot(108)        7        5     2088    205.0    535.6   1435.1   827.00      0.0    186.2     18.8     20.3      0.0    101.0       45    272.7    273.6       93     0.000     0.000     0.000     0.000      107        0        0        0        2        4        6    21.399       88     40.0    8.560   -9.900     2.29    0.000    0.000       27        8     2088  Maize_short_Cahul_7May_Optimum_85_MPI.PRM
 Tot(109)        7        5     2089    200.4    517.5   1365.3   836.00      0.0    176.6     23.8     38.8      0.0    114.9       57    240.9    241.0       86     0.000     0.000     0.000     0.000      107        0        0        0        6        3       12    19.091       80     39.8    7.590   -9.900     2.13    0.000    0.000       27        8     2089  Maize_short_Cahul_7May_Optimum_85_MPI.PRM
 Tot(110)        7        5     2090     42.7    615.6   1381.6   845.00      0.0     42.7      0.0      0.0      0.0     73.1       22    173.3    174.0       76     0.000     0.000     0.000     0.000       93        0        0        0       13       26       19    10.734       44     30.0    3.221   -9.900     1.33    0.000    0.000       27        8     2090  Maize_short_Cahul_7May_Optimum_85_MPI.PRM
 Tot(111)        7        5     2091     85.4    614.2   1520.4   854.00      0.0     85.4      0.0      0.0      0.0     96.8       31    193.2    193.1       75     0.000     0.000     0.000     0.000      107        0        0        0        2       17       18    12.985       54     39.5    5.130   -9.900     1.77    0.000    0.000       27        8     2091  Maize_short_Cahul_7May_Optimum_85_MPI.PRM
 Tot(112)        7        5     2092    100.1    657.9   1532.9   863.00      0.0     99.9      0.2      0.0      0.0    103.1       37    219.7    219.7       71     0.000     0.000     0.000     0.000      102        0        0        0        4       16       23    13.472       55     37.7    5.086   -9.900     1.58    0.000    0.000       27        8     2092  Maize_short_Cahul_7May_Optimum_85_MPI.PRM
 Tot(113)        7        5     2093    175.3    560.9   1448.3   872.00      0.0    159.9     15.4     24.5      0.0    100.4       44    255.3    254.6       85     0.000     0.000     0.000     0.000      107        0        0        0        3        6       11    19.246       80     39.7    7.649   -9.900     2.15    0.000    0.000       27        8     2093  Maize_short_Cahul_7May_Optimum_85_MPI.PRM
 Tot(114)        7        5     2094    176.9    553.7   1416.3   881.00      0.0    160.1     16.8     12.9      0.0    109.4       43    197.1    197.7       77     0.000     0.000     0.000     0.000      107        0        0        0        6       15       17    14.031       59     39.8    5.585   -9.900     1.82    0.000    0.000       27        8     2094  Maize_short_Cahul_7May_Optimum_85_MPI.PRM
 Tot(115)        7        5     2095     48.3    682.4   1602.7   890.00      0.0     48.2      0.1      0.0      0.0     78.6       19    180.7    180.8       74     0.000     0.000     0.000     0.000      105        0        0        0        2       33       21    10.733       44     40.1    4.303   -9.900     1.66    0.000    0.000       27        8     2095  Maize_short_Cahul_7May_Optimum_85_MPI.PRM
 Tot(116)        7        5     2096     77.3    724.5   1702.6   899.00      0.0     77.3      0.0      0.0      0.0     91.7       25    210.4    210.4       70     0.000     0.000     0.000     0.000      107        0        0        0        0       22       24    12.681       53     38.5    4.883   -9.900     1.62    0.000    0.000       27        8     2096  Maize_short_Cahul_7May_Optimum_85_MPI.PRM
 Tot(117)        7        5     2097    171.0    518.1   1441.1   908.00      0.0    167.6      3.4      0.0      0.0     80.6       35    257.2    255.6       98     0.000     0.000     0.000     0.000      107        0        0        0        5       11        1    21.190       90     40.2    8.526   -9.900     2.52    0.000    0.000       27        8     2097  Maize_short_Cahul_7May_Optimum_85_MPI.PRM
 Tot(118)        7        5     2098    234.4    512.8   1346.4   917.00      0.0    197.7     36.7     10.9      0.0    123.7       59    263.0    263.0       97     0.000     0.000     0.000     0.000      107        0        0        0        5        4        3    21.805       93     40.1    8.736   -9.900     2.26    0.000    0.000       27        8     2098  Maize_short_Cahul_7May_Optimum_85_MPI.PRM
 Tot(119)        7        5     2099    130.4    603.6   1496.8   927.00      0.0    115.9     14.5     17.8      0.0    116.0       40    185.4    187.0       74     0.000     0.000     0.000     0.000       95        0        0        0        5       21       20    11.638       49     31.8    3.704   -9.900     1.28    0.000    0.000       27        8     2099  Maize_short_Cahul_7May_Optimum_85_MPI.PRM
