AquaCrop 7.0 (August 2022) - Output created on (date) : 23-11-2022   at (time) : 13:25:29

    RunNr     Day1   Month1    Year1     Rain      ETo       GD     CO2      Irri   Infilt   Runoff    Drain   Upflow        E     E/Ex       Tr      TrW   Tr/Trx    SaltIn   SaltOut    SaltUp  SaltProf     Cycle   SaltStr  FertStr  WeedStr  TempStr   ExpStr   StoStr  BioMass  Brelative   HI    Y(dry)  Y(fresh)    WPet      Bin     Bout     DayN   MonthN    YearN
                                           mm       mm  degC.day    ppm        mm       mm       mm       mm       mm       mm        %       mm       mm        %    ton/ha    ton/ha    ton/ha    ton/ha      days       %        %        %        %        %        %    ton/ha        %       %    ton/ha   ton/ha    kg/m3   ton/ha   ton/ha
   Tot(1)        6        6     1981    199.9    451.3   1202.5   340.11      0.0    168.9     31.0      0.0      0.0     98.0       45    218.0    218.4       95     0.000     0.000     0.000     0.000      107        0        0        0       17       16        2    16.753       89     40.8    6.841   -9.900     2.16    0.000    0.000       26        9     1981  Maize_short_Chisinau_6June_Optimum_26_NCC.PRM
   Tot(2)        6        6     1982    192.1    427.5   1217.6   341.22      0.0    191.6      0.5      0.0      0.0    140.8       75    245.0    245.9       99     0.000     0.000     0.000     0.000      107        0        0        0       10        1        1    20.939       96     40.1    8.397   -9.900     2.18    0.000    0.000       26        9     1982  Maize_short_Chisinau_6June_Optimum_26_NCC.PRM
   Tot(3)        6        6     1983    262.8    443.0   1188.8   342.84      0.0    240.7     22.1     39.3      0.0    123.0       64    240.7    240.9      100     0.000     0.000     0.000     0.000      107        0        0        0       12        2        0    19.837       97     40.0    7.937   -9.900     2.18    0.000    0.000       26        9     1983  Maize_short_Chisinau_6June_Optimum_26_NCC.PRM
   Tot(4)        6        6     1984    184.6    423.3   1101.0   344.40      0.0    181.4      3.2      7.2      0.0    136.9       71    220.8    219.5       99     0.000     0.000     0.000     0.000      107        0        0        0       16        6        1    19.436       95     40.3    7.833   -9.900     2.19    0.000    0.000       26        9     1984  Maize_short_Chisinau_6June_Optimum_26_NCC.PRM
   Tot(5)        6        6     1985    281.0    437.5   1120.2   345.87      0.0    247.3     33.7     63.0      0.0    137.1       76    236.2    237.8       97     0.000     0.000     0.000     0.000      107        0        0        0       20        4        2    17.913       94     40.2    7.201   -9.900     1.93    0.000    0.000       26        9     1985  Maize_short_Chisinau_6June_Optimum_26_NCC.PRM
   Tot(6)        6        6     1986    165.0    499.0   1263.3   347.19      0.0    162.3      2.7      5.9      0.0    118.1       52    247.8    247.9       93     0.000     0.000     0.000     0.000      107        0        0        0       13        7        8    17.670       87     40.2    7.106   -9.900     1.94    0.000    0.000       26        9     1986  Maize_short_Chisinau_6June_Optimum_26_NCC.PRM
   Tot(7)        6        6     1987    220.8    477.8   1198.4   348.98      0.0    212.1      8.7     13.2      0.0    114.5       50    234.2    232.2      100     0.000     0.000     0.000     0.000      107        0        0        0       15        5        0    18.307       96     40.2    7.355   -9.900     2.11    0.000    0.000       26        9     1987  Maize_short_Chisinau_6June_Optimum_26_NCC.PRM
   Tot(8)        6        6     1988    230.8    451.7   1243.1   351.45      0.0    200.8     30.0      1.9      0.0    101.3       48    241.5    242.3       99     0.000     0.000     0.000     0.000      107        0        0        0       14        9        0    18.896       94     40.5    7.652   -9.900     2.23    0.000    0.000       26        9     1988  Maize_short_Chisinau_6June_Optimum_26_NCC.PRM
   Tot(9)        6        6     1989    317.2    425.1   1179.8   352.89      0.0    284.4     32.8     13.0      0.0    118.7       59    221.5    221.3      100     0.000     0.000     0.000     0.000      107        0        0        0       14        2        0    19.137       97     40.1    7.667   -9.900     2.25    0.000    0.000       26        9     1989  Maize_short_Chisinau_6June_Optimum_26_NCC.PRM
  Tot(10)        6        6     1990    132.3    476.7   1149.2   354.16      0.0    130.1      2.2      3.3      0.0    118.7       50    204.5    205.5       91     0.000     0.000     0.000     0.000      107        0        0        0       17       14       10    14.985       80     40.5    6.063   -9.900     1.88    0.000    0.000       26        9     1990  Maize_short_Chisinau_6June_Optimum_26_NCC.PRM
  Tot(11)        6        6     1991    275.4    418.6   1253.8   355.48      0.0    261.5     13.9     18.7      0.0    129.6       66    218.7    217.2      100     0.000     0.000     0.000     0.000      107        0        0        0       11        1        0    19.676       97     40.0    7.874   -9.900     2.26    0.000    0.000       26        9     1991  Maize_short_Chisinau_6June_Optimum_26_NCC.PRM
  Tot(12)        6        6     1992    150.7    509.8   1276.3   356.27      0.0    145.6      5.1     13.2      0.0    120.0       50    218.1    220.0       83     0.000     0.000     0.000     0.000      107        0        0        0       13       19       15    14.195       70     40.5    5.749   -9.900     1.70    0.000    0.000       26        9     1992  Maize_short_Chisinau_6June_Optimum_26_NCC.PRM
  Tot(13)        6        6     1993    182.1    473.1   1085.2   356.95      0.0    180.2      1.9      0.0      0.0    113.6       50    223.8    222.4       97     0.000     0.000     0.000     0.000      107        0        0        0       21       12        1    16.839       91     40.6    6.833   -9.900     2.03    0.000    0.000       26        9     1993  Maize_short_Chisinau_6June_Optimum_26_NCC.PRM
  Tot(14)        6        6     1994    231.2    503.3   1362.6   358.63      0.0    182.4     48.8     16.1      0.0     83.3       33    262.5    262.3       97     0.000     0.000     0.000     0.000      107        0        0        0        4       21        2    19.799       86     40.9    8.101   -9.900     2.34    0.000    0.000       26        9     1994  Maize_short_Chisinau_6June_Optimum_26_NCC.PRM
  Tot(15)        6        6     1995    234.6    464.0   1267.5   360.62      0.0    221.2     13.4      0.0      0.0    105.9       47    237.4    238.7      100     0.000     0.000     0.000     0.000      107        0        0        0       12        6        0    19.159       95     40.3    7.720   -9.900     2.25    0.000    0.000       26        9     1995  Maize_short_Chisinau_6June_Optimum_26_NCC.PRM
  Tot(16)        6        6     1996    265.4    465.3   1136.8   362.37      0.0    227.9     37.5      0.0      0.0     93.6       35    193.4    193.4       99     0.000     0.000     0.000     0.000      107        0        0        0       23       17        0    15.741       90     40.7    6.410   -9.900     2.23    0.000    0.000       26        9     1996  Maize_short_Chisinau_6June_Optimum_26_NCC.PRM
  Tot(17)        6        6     1997    315.0    407.4   1143.8   363.47      0.0    294.3     20.7      7.2      0.0    131.8       67    192.3    192.5      100     0.000     0.000     0.000     0.000      107        0        0        0       17        1        0    18.210       97     40.0    7.285   -9.900     2.25    0.000    0.000       26        9     1997  Maize_short_Chisinau_6June_Optimum_26_NCC.PRM
  Tot(18)        6        6     1998    223.6    463.9   1226.6   366.50      0.0    217.1      6.5      0.0      0.0    129.6       63    237.8    236.7       97     0.000     0.000     0.000     0.000      107        0        0        0       16        9        2    17.817       91     40.6    7.225   -9.900     1.97    0.000    0.000       26        9     1998  Maize_short_Chisinau_6June_Optimum_26_NCC.PRM
  Tot(19)        6        6     1999    153.2    491.5   1394.7   368.14      0.0    151.2      2.0      1.9      0.0    114.9       46    237.4    237.1       95     0.000     0.000     0.000     0.000      107        0        0        0        7       15        5    18.736       87     40.5    7.587   -9.900     2.15    0.000    0.000       26        9     1999  Maize_short_Chisinau_6June_Optimum_26_NCC.PRM
  Tot(20)        6        6     2000    210.5    500.1   1200.6   369.41      0.0    203.8      6.7      0.0      0.0     93.1       37    248.7    250.0       99     0.000     0.000     0.000     0.000      107        0        0        0       18        7        0    18.453       94     40.3    7.441   -9.900     2.18    0.000    0.000       26        9     2000  Maize_short_Chisinau_6June_Optimum_26_NCC.PRM
  Tot(21)        6        6     2001    206.9    490.4   1341.7   371.07      0.0    193.1     13.8      1.1      0.0    112.9       49    231.8    231.9       89     0.000     0.000     0.000     0.000      107        0        0        0        9       17        7    16.781       77     40.7    6.825   -9.900     1.98    0.000    0.000       26        9     2001  Maize_short_Chisinau_6June_Optimum_26_NCC.PRM
  Tot(22)        6        6     2002    290.9    484.3   1361.3   373.16      0.0    261.3     29.6     17.0      0.0     92.9       37    246.0    245.3      100     0.000     0.000     0.000     0.000      107        0        0        0        8        4        0    20.259       94     40.0    8.104   -9.900     2.39    0.000    0.000       26        9     2002  Maize_short_Chisinau_6June_Optimum_26_NCC.PRM
  Tot(23)        6        6     2003    217.4    513.0   1265.0   375.80      0.0    213.7      3.7      0.0      0.0    117.9       48    262.4    263.0      100     0.000     0.000     0.000     0.000      107        0        0        0       13        3        0    19.668       96     40.1    7.890   -9.900     2.07    0.000    0.000       26        9     2003  Maize_short_Chisinau_6June_Optimum_26_NCC.PRM
  Tot(24)        6        6     2004    185.9    481.7   1215.0   377.49      0.0    178.0      7.9     18.8      0.0     87.9       36    237.4    236.7      100     0.000     0.000     0.000     0.000      107        0        0        0       12        5        0    19.468       95     40.2    7.826   -9.900     2.41    0.000    0.000       26        9     2004  Maize_short_Chisinau_6June_Optimum_26_NCC.PRM
  Tot(25)        6        6     2005    243.9    464.2   1283.3   379.80      0.0    230.6     13.3     16.9      0.0    122.7       58    259.9    258.2      100     0.000     0.000     0.000     0.000      107        0        0        0        7        7        0    21.269       96     40.2    8.552   -9.900     2.24    0.000    0.000       26        9     2005  Maize_short_Chisinau_6June_Optimum_26_NCC.PRM
  Tot(26)        6        6     2006    224.5    508.3   1271.8   381.90      0.0    219.8      4.7      9.9      0.0    115.6       47    268.5    268.6      100     0.000     0.000     0.000     0.000      107        0        0        0        9        9        0    20.372       94     40.3    8.203   -9.900     2.14    0.000    0.000       26        9     2006  Maize_short_Chisinau_6June_Optimum_26_NCC.PRM
  Tot(27)        6        6     2007    158.6    581.7   1358.0   383.77      0.0    158.1      0.5      0.0      0.0    110.8       32    235.1    236.1       95     0.000     0.000     0.000     0.000      107        0        0        0       11       21        3    16.215       78     40.3    6.528   -9.900     1.89    0.000    0.000       26        9     2007  Maize_short_Chisinau_6June_Optimum_26_NCC.PRM
  Tot(28)        6        6     2008    239.5    514.8   1289.7   385.59      0.0    227.2     12.3      4.8      0.0    119.9       47    250.8    251.9       94     0.000     0.000     0.000     0.000      107        0        0        0       14        6        4    17.536       88     40.2    7.042   -9.900     1.90    0.000    0.000       26        9     2008  Maize_short_Chisinau_6June_Optimum_26_NCC.PRM
  Tot(29)        6        6     2009    175.7    556.7   1379.5   387.37      0.0    173.5      2.2      0.0      0.0    116.2       42    265.1    265.0       91     0.000     0.000     0.000     0.000      107        0        0        0        6       10        8    18.442       82     40.2    7.414   -9.900     1.94    0.000    0.000       26        9     2009  Maize_short_Chisinau_6June_Optimum_26_NCC.PRM
  Tot(30)        6        6     2010    248.7    490.7   1382.9   389.85      0.0    230.1     18.6     30.3      0.0    125.5       55    241.0    240.1       91     0.000     0.000     0.000     0.000      107        0        0        0       11       12        5    17.993       85     40.6    7.310   -9.900     1.99    0.000    0.000       26        9     2010  Maize_short_Chisinau_6June_Optimum_26_NCC.PRM
  Tot(31)        6        6     2011    205.0    522.5   1358.5   391.63      0.0    185.1     19.9     29.8      0.0    141.0       56    230.2    231.6       84     0.000     0.000     0.000     0.000      107        0        0        0        7       11       16    16.036       69     40.0    6.408   -9.900     1.73    0.000    0.000       26        9     2011  Maize_short_Chisinau_6June_Optimum_26_NCC.PRM
  Tot(32)        6        6     2012    146.0    597.2   1443.1   393.82      0.0    144.1      1.9      3.1      0.0     98.3       30    244.6    243.4       88     0.000     0.000     0.000     0.000      107        0        0        0        5       21       11    15.618       69     40.2    6.283   -9.900     1.83    0.000    0.000       26        9     2012  Maize_short_Chisinau_6June_Optimum_26_NCC.PRM
  Tot(33)        6        6     2013    345.4    493.2   1303.2   396.48      0.0    292.7     52.7     37.3      0.0    119.6       50    240.9    241.8       97     0.000     0.000     0.000     0.000      107        0        0        0       12       10        2    18.524       90     40.5    7.501   -9.900     2.08    0.000    0.000       26        9     2013  Maize_short_Chisinau_6June_Optimum_26_NCC.PRM
  Tot(34)        6        6     2014    170.9    550.3   1350.4   398.55      0.0    169.2      1.7      0.0      0.0    105.2       42    270.6    270.9       89     0.000     0.000     0.000     0.000      107        0        0        0        9       10       10    18.044       82     40.2    7.252   -9.900     1.93    0.000    0.000       26        9     2014  Maize_short_Chisinau_6June_Optimum_26_NCC.PRM
  Tot(35)        6        6     2015    125.4    579.0   1437.4   401.00      0.0    124.8      0.6      0.0      0.0    129.4       40    205.3    205.3       81     0.000     0.000     0.000     0.000      102        0        0        0        5       24       18    12.722       55     39.3    5.003   -9.900     1.51    0.000    0.000       26        9     2015  Maize_short_Chisinau_6June_Optimum_26_NCC.PRM
  Tot(36)        6        6     2016    160.2    553.8   1415.3   403.00      0.0    154.0      6.2     12.5      0.0    129.1       43    213.2    213.1       82     0.000     0.000     0.000     0.000      107        0        0        0        8       21       15    14.001       63     40.2    5.624   -9.900     1.64    0.000    0.000       26        9     2016  Maize_short_Chisinau_6June_Optimum_26_NCC.PRM
  Tot(37)        6        6     2017    253.3    534.3   1396.1   405.00      0.0    233.1     20.2     24.7      0.0    138.7       57    279.8    279.4       93     0.000     0.000     0.000     0.000      107        0        0        0        6        4        7    19.825       87     39.9    7.919   -9.900     1.89    0.000    0.000       26        9     2017  Maize_short_Chisinau_6June_Optimum_26_NCC.PRM
  Tot(38)        6        6     2018    286.1    507.8   1446.5   408.00      0.0    269.1     17.0     27.6      0.0    155.4       69    278.6    279.2       94     0.000     0.000     0.000     0.000      107        0        0        0        6        2        4    20.835       90     40.1    8.349   -9.900     1.92    0.000    0.000       26        9     2018  Maize_short_Chisinau_6June_Optimum_26_NCC.PRM
  Tot(39)        6        6     2019    156.4    558.4   1419.7   410.00      0.0    153.3      3.1      1.1      0.0    117.3       42    245.5    245.4       86     0.000     0.000     0.000     0.000      107        0        0        0        7        9       15    16.683       74     39.7    6.616   -9.900     1.82    0.000    0.000       26        9     2019  Maize_short_Chisinau_6June_Optimum_26_NCC.PRM
  Tot(40)        6        6     2020    132.0    505.5   1270.9   412.00      0.0    131.9      0.1      0.0      0.0    100.5       41    234.3    234.4       88     0.000     0.000     0.000     0.000      107        0        0        0        9       13       10    17.293       78     40.3    6.969   -9.900     2.08    0.000    0.000       26        9     2020  Maize_short_Chisinau_6June_Optimum_26_NCC.PRM
  Tot(41)        6        6     2021    105.4    531.3   1171.9   414.00      0.0     96.7      8.7     13.5      0.0     80.4       31    205.9    206.0       79     0.000     0.000     0.000     0.000      106        0        0        0       18       19       18    12.271       59     40.2    4.931   -9.900     1.73    0.000    0.000       26        9     2021  Maize_short_Chisinau_6June_Optimum_26_NCC.PRM
  Tot(42)        6        6     2022     84.9    621.9   1482.4   417.00      0.0     84.7      0.2      0.0      0.0    113.7       27    172.1    172.1       81     0.000     0.000     0.000     0.000       98        0        0        0        3       34       16     9.883       44     35.4    3.502   -9.900     1.23    0.000    0.000       26        9     2022  Maize_short_Chisinau_6June_Optimum_26_NCC.PRM
  Tot(43)        6        6     2023     99.8    551.0   1299.2   419.00      0.0     99.4      0.4      0.3      0.0    108.0       36    194.4    194.4       80     0.000     0.000     0.000     0.000      107        0        0        0       12       19       17    12.875       62     40.2    5.175   -9.900     1.71    0.000    0.000       26        9     2023  Maize_short_Chisinau_6June_Optimum_26_NCC.PRM
  Tot(44)        6        6     2024     98.2    553.8   1190.4   421.00      0.0     90.1      8.1     16.1      0.0     93.7       30    183.8    183.8       79     0.000     0.000     0.000     0.000       96        0        0        0       14       28       19    11.100       52     33.3    3.699   -9.900     1.36    0.000    0.000       26        9     2024  Maize_short_Chisinau_6June_Optimum_26_NCC.PRM
  Tot(45)        6        6     2025    192.9    510.5   1234.0   423.00      0.0    176.5     16.4     15.9      0.0    119.3       46    190.2    190.2       78     0.000     0.000     0.000     0.000       98        0        0        0       10       22       18    11.775       52     35.2    4.144   -9.900     1.36    0.000    0.000       26        9     2025  Maize_short_Chisinau_6June_Optimum_26_NCC.PRM
  Tot(46)        6        6     2026    287.2    488.7   1113.3   424.00      0.0    238.4     48.8     43.6      0.0    139.1       59    205.8    205.7       86     0.000     0.000     0.000     0.000      107        0        0        0       22       14        7    14.534       79     40.6    5.902   -9.900     1.71    0.000    0.000       26        9     2026  Maize_short_Chisinau_6June_Optimum_26_NCC.PRM
  Tot(47)        6        6     2027    150.5    595.4   1397.6   426.00      0.0    144.1      6.4      3.6      0.0    115.5       33    204.2    204.3       80     0.000     0.000     0.000     0.000      107        0        0        0        9       26       15    11.932       54     40.4    4.824   -9.900     1.51    0.000    0.000       26        9     2027  Maize_short_Chisinau_6June_Optimum_26_NCC.PRM
  Tot(48)        6        6     2028    147.7    573.7   1425.2   428.00      0.0    136.5     11.2      0.0      0.0     92.4       28    198.7    198.6       79     0.000     0.000     0.000     0.000      107        0        0        0        6       24       16    12.030       52     40.2    4.836   -9.900     1.66    0.000    0.000       26        9     2028  Maize_short_Chisinau_6June_Optimum_26_NCC.PRM
  Tot(49)        6        6     2029    196.9    414.4   1008.1   429.00      0.0    178.1     18.8     23.7      0.0     89.6       50    212.4    212.4       95     0.000     0.000     0.000     0.000      107        0        0        0       23        5        3    17.310       91     40.2    6.967   -9.900     2.31    0.000    0.000       26        9     2029  Maize_short_Chisinau_6June_Optimum_26_NCC.PRM
  Tot(50)        6        6     2030     67.6    609.7   1342.1   431.00      0.0     67.6      0.0      0.0      0.0     88.8       23    173.1    173.2       77     0.000     0.000     0.000     0.000       93        0        0        0        6       31       19     9.552       47     30.1    2.877   -9.900     1.13    0.000    0.000       26        9     2030  Maize_short_Chisinau_6June_Optimum_26_NCC.PRM
  Tot(51)        6        6     2031     47.2    624.8   1464.7   432.00      0.0     47.2      0.0      0.0      0.0     70.0       17    169.0    169.0       78     0.000     0.000     0.000     0.000       92        0        0        0        1       32       18     9.435       40     29.1    2.749   -9.900     1.18    0.000    0.000       26        9     2031  Maize_short_Chisinau_6June_Optimum_26_NCC.PRM
  Tot(52)        6        6     2032     92.1    545.2   1341.9   433.00      0.0     92.0      0.1      0.3      0.0    107.5       38    195.6    195.6       78     0.000     0.000     0.000     0.000       98        0        0        0        5       19       19    12.674       55     34.9    4.426   -9.900     1.46    0.000    0.000       26        9     2032  Maize_short_Chisinau_6June_Optimum_26_NCC.PRM
  Tot(53)        6        6     2033    121.2    551.2   1299.4   435.00      0.0    117.3      3.9      4.2      0.0    102.9       38    219.0    218.3       81     0.000     0.000     0.000     0.000      107        0        0        0       10       24       15    14.390       66     40.6    5.836   -9.900     1.81    0.000    0.000       26        9     2033  Maize_short_Chisinau_6June_Optimum_26_NCC.PRM
  Tot(54)        6        6     2034    136.9    518.4   1126.6   436.00      0.0    114.2     22.7     36.4      0.0     87.1       34    199.1    199.8       82     0.000     0.000     0.000     0.000      100        0        0        0       16       21       18    12.544       61     37.3    4.680   -9.900     1.64    0.000    0.000       26        9     2034  Maize_short_Chisinau_6June_Optimum_26_NCC.PRM
  Tot(55)        6        6     2035     56.3    557.7   1277.7   437.00      0.0     56.0      0.3      1.1      0.0     74.2       22    178.9    178.9       80     0.000     0.000     0.000     0.000      103        0        0        0       10       27       17    11.247       52     40.4    4.548   -9.900     1.80    0.000    0.000       26        9     2035  Maize_short_Chisinau_6June_Optimum_26_NCC.PRM
  Tot(56)        6        6     2036    111.8    460.4   1094.2   438.00      0.0    109.5      2.3      5.0      0.0    106.3       52    209.9    209.8       88     0.000     0.000     0.000     0.000      107        0        0        0       18       10       13    16.205       78     40.2    6.522   -9.900     2.06    0.000    0.000       26        9     2036  Maize_short_Chisinau_6June_Optimum_26_NCC.PRM
  Tot(57)        6        6     2037    160.4    539.3   1307.6   438.00      0.0    154.2      6.2      0.0      0.0    108.1       40    212.5    212.6       80     0.000     0.000     0.000     0.000      107        0        0        0       14       22       13    13.940       66     40.5    5.639   -9.900     1.76    0.000    0.000       26        9     2037  Maize_short_Chisinau_6June_Optimum_26_NCC.PRM
  Tot(58)        6        6     2038    210.1    566.2   1346.4   439.00      0.0    185.2     24.9      0.0      0.0    138.1       40    180.5    180.7       80     0.000     0.000     0.000     0.000      107        0        0        0       16       29       15    10.814       55     40.5    4.378   -9.900     1.37    0.000    0.000       26        9     2038  Maize_short_Chisinau_6June_Optimum_26_NCC.PRM
  Tot(59)        6        6     2039     84.7    511.7   1205.7   440.00      0.0     83.8      0.9      0.4      0.0     71.2       27    218.5    218.2       90     0.000     0.000     0.000     0.000      107        0        0        0       15       20        8    16.524       79     40.8    6.734   -9.900     2.32    0.000    0.000       26        9     2039  Maize_short_Chisinau_6June_Optimum_26_NCC.PRM
  Tot(60)        6        6     2040    103.0    606.1   1416.0   440.00      0.0    102.7      0.3      0.0      0.0    119.0       35    184.9    185.3       75     0.000     0.000     0.000     0.000       91        0        0        0        5       27       20    10.093       42     27.9    2.820   -9.900     0.94    0.000    0.000       26        9     2040  Maize_short_Chisinau_6June_Optimum_26_NCC.PRM
  Tot(61)        6        6     2041    215.6    452.8   1139.0   441.00      0.0    207.9      7.7     16.5      0.0    121.6       55    221.2    220.5      100     0.000     0.000     0.000     0.000      107        0        0        0       17        8        0    18.937       94     40.1    7.598   -9.900     2.22    0.000    0.000       26        9     2041  Maize_short_Chisinau_6June_Optimum_26_NCC.PRM
  Tot(62)        6        6     2042     70.4    574.1   1319.2   441.00      0.0     70.2      0.2      0.3      0.0     89.1       26    181.2    181.9       78     0.000     0.000     0.000     0.000       96        0        0        0        7       28       18    10.524       49     33.3    3.500   -9.900     1.30    0.000    0.000       26        9     2042  Maize_short_Chisinau_6June_Optimum_26_NCC.PRM
  Tot(63)        6        6     2043     81.4    509.5   1215.4   441.00      0.0     80.6      0.8      4.3      0.0     94.1       36    193.7    193.7       80     0.000     0.000     0.000     0.000      103        0        0        0        9       19       18    13.624       61     40.1    5.458   -9.900     1.90    0.000    0.000       26        9     2043  Maize_short_Chisinau_6June_Optimum_26_NCC.PRM
  Tot(64)        6        6     2044    101.8    545.3   1209.7   442.00      0.0     99.1      2.7      6.7      0.0    105.8       36    190.8    190.8       79     0.000     0.000     0.000     0.000       97        0        0        0       10       23       18    11.747       57     34.1    4.010   -9.900     1.36    0.000    0.000       26        9     2044  Maize_short_Chisinau_6June_Optimum_26_NCC.PRM
  Tot(65)        6        6     2045     65.1    568.8   1275.8   442.00      0.0     64.1      1.0      1.2      0.0     91.1       27    175.7    175.7       79     0.000     0.000     0.000     0.000       96        0        0        0        9       27       18    10.954       50     33.2    3.640   -9.900     1.40    0.000    0.000       26        9     2045  Maize_short_Chisinau_6June_Optimum_26_NCC.PRM
  Tot(66)        6        6     2046    109.7    574.5   1396.0   442.00      0.0    106.1      3.6      2.8      0.0    105.4       31    178.2    178.2       77     0.000     0.000     0.000     0.000       93        0        0        0        3       29       19    10.257       45     30.1    3.087   -9.900     1.16    0.000    0.000       26        9     2046  Maize_short_Chisinau_6June_Optimum_26_NCC.PRM
  Tot(67)        6        6     2047    125.6    481.4   1192.6   442.00      0.0    125.4      0.2      0.0      0.0    117.8       52    212.6    212.2       89     0.000     0.000     0.000     0.000      107        0        0        0       13        8       11    16.570       80     40.1    6.652   -9.900     2.01    0.000    0.000       26        9     2047  Maize_short_Chisinau_6June_Optimum_26_NCC.PRM
  Tot(68)        6        6     2048     94.3    518.8   1281.1   442.00      0.0     94.3      0.0      0.0      0.0     96.6       34    209.4    209.8       86     0.000     0.000     0.000     0.000      107        0        0        0       10       27       12    15.397       71     40.6    6.258   -9.900     2.05    0.000    0.000       26        9     2048  Maize_short_Chisinau_6June_Optimum_26_NCC.PRM
  Tot(69)        6        6     2049     81.4    547.6   1301.7   443.00      0.0     81.4      0.0      0.0      0.0     75.5       25    212.4    212.2       85     0.000     0.000     0.000     0.000      107        0        0        0       11       22       11    15.551       71     40.5    6.297   -9.900     2.19    0.000    0.000       26        9     2049  Maize_short_Chisinau_6June_Optimum_26_NCC.PRM
  Tot(70)        6        6     2050    179.2    573.5   1329.6   443.00      0.0    159.2     20.0      0.0      0.0    107.7       31    181.4    181.2       82     0.000     0.000     0.000     0.000      107        0        0        0       14       32        9    11.471       56     40.6    4.661   -9.900     1.61    0.000    0.000       26        9     2050  Maize_short_Chisinau_6June_Optimum_26_NCC.PRM
  Tot(71)        6        6     2051    128.6    511.2   1241.6   443.00      0.0    128.3      0.3      0.0      0.0    117.3       46    212.7    213.0       85     0.000     0.000     0.000     0.000      107        0        0        0       14       21       11    15.111       72     40.6    6.143   -9.900     1.86    0.000    0.000       26        9     2051  Maize_short_Chisinau_6June_Optimum_26_NCC.PRM
  Tot(72)        6        6     2052    147.2    456.4   1109.8   443.00      0.0    136.3     10.9      2.2      0.0     93.3       43    216.2    216.2      100     0.000     0.000     0.000     0.000      107        0        0        0       21        5        0    18.132       95     40.1    7.264   -9.900     2.35    0.000    0.000       26        9     2052  Maize_short_Chisinau_6June_Optimum_26_NCC.PRM
  Tot(73)        6        6     2053    165.3    492.7   1226.2   443.00      0.0    159.9      5.4      6.0      0.0    113.4       50    222.0    221.9       87     0.000     0.000     0.000     0.000      107        0        0        0       15       13        8    15.753       77     40.3    6.344   -9.900     1.89    0.000    0.000       26        9     2053  Maize_short_Chisinau_6June_Optimum_26_NCC.PRM
  Tot(74)        6        6     2054     73.7    627.4   1320.6   443.00      0.0     72.8      0.9      0.0      0.0     94.4       24    181.3    181.5       79     0.000     0.000     0.000     0.000      107        0        0        0       13       33       19    10.350       49     40.4    4.183   -9.900     1.52    0.000    0.000       26        9     2054  Maize_short_Chisinau_6June_Optimum_26_NCC.PRM
  Tot(75)        6        6     2055     67.5    563.5   1306.9   443.00      0.0     66.9      0.6      0.5      0.0     89.9       27    179.6    179.6       80     0.000     0.000     0.000     0.000       97        0        0        0        8       28       18    10.917       50     34.3    3.748   -9.900     1.39    0.000    0.000       26        9     2055  Maize_short_Chisinau_6June_Optimum_26_NCC.PRM
  Tot(76)        6        6     2056    189.0    547.4   1315.8   442.00      0.0    177.0     12.0     16.9      0.0    136.3       50    226.9    226.8       84     0.000     0.000     0.000     0.000      107        0        0        0       12       18       13    15.149       70     40.5    6.140   -9.900     1.69    0.000    0.000       26        9     2056  Maize_short_Chisinau_6June_Optimum_26_NCC.PRM
  Tot(77)        6        6     2057    194.2    535.8   1401.5   442.00      0.0    188.3      5.9      8.6      0.0    152.0       62    244.0    244.0       83     0.000     0.000     0.000     0.000      107        0        0        0        5       13       15    17.193       73     40.1    6.902   -9.900     1.74    0.000    0.000       26        9     2057  Maize_short_Chisinau_6June_Optimum_26_NCC.PRM
  Tot(78)        6        6     2058    114.7    554.7   1382.2   442.00      0.0    114.7      0.0      0.0      0.0     93.8       30    228.8    227.9       92     0.000     0.000     0.000     0.000      107        0        0        0        9       17        8    16.964       77     40.4    6.847   -9.900     2.12    0.000    0.000       26        9     2058  Maize_short_Chisinau_6June_Optimum_26_NCC.PRM
  Tot(79)        6        6     2059    100.0    561.5   1302.9   442.00      0.0     98.8      1.2      1.3      0.0    105.3       33    195.7    196.6       83     0.000     0.000     0.000     0.000      107        0        0        0       11       26       16    12.609       57     40.4    5.091   -9.900     1.69    0.000    0.000       26        9     2059  Maize_short_Chisinau_6June_Optimum_26_NCC.PRM
  Tot(80)        6        6     2060     82.3    546.6   1297.0   442.00      0.0     81.6      0.7      0.0      0.0    102.7       33    179.8    179.9       79     0.000     0.000     0.000     0.000       98        0        0        0       10       26       18    11.311       54     35.3    3.995   -9.900     1.42    0.000    0.000       26        9     2060  Maize_short_Chisinau_6June_Optimum_26_NCC.PRM
  Tot(81)        6        6     2061    134.1    559.6   1285.4   441.00      0.0    118.8     15.3     22.5      0.0    106.5       35    196.9    196.9       78     0.000     0.000     0.000     0.000       98        0        0        0        4       21       19    12.459       55     35.0    4.356   -9.900     1.46    0.000    0.000       26        9     2061  Maize_short_Chisinau_6June_Optimum_26_NCC.PRM
  Tot(82)        6        6     2062    106.2    571.3   1323.9   441.00      0.0    105.9      0.3      0.0      0.0    103.9       30    193.2    193.0       83     0.000     0.000     0.000     0.000      107        0        0        0        6       27       13    13.442       58     40.4    5.434   -9.900     1.83    0.000    0.000       26        9     2062  Maize_short_Chisinau_6June_Optimum_26_NCC.PRM
  Tot(83)        6        6     2063     64.7    617.0   1386.0   441.00      0.0     63.7      1.0      3.7      0.0     84.5       23    174.9    175.1       76     0.000     0.000     0.000     0.000       89        0        0        0        5       31       19     9.541       41     26.4    2.516   -9.900     0.99    0.000    0.000       26        9     2063  Maize_short_Chisinau_6June_Optimum_26_NCC.PRM
  Tot(84)        6        6     2064     79.5    579.5   1312.5   440.00      0.0     79.4      0.1      0.0      0.0     97.9       29    181.5    181.5       77     0.000     0.000     0.000     0.000       98        0        0        0       10       26       18    10.746       53     35.2    3.784   -9.900     1.36    0.000    0.000       26        9     2064  Maize_short_Chisinau_6June_Optimum_26_NCC.PRM
  Tot(85)        6        6     2065     66.6    584.3   1307.0   440.00      0.0     66.0      0.6      0.0      0.0     91.0       28    179.3    179.3       75     0.000     0.000     0.000     0.000       94        0        0        0        6       24       20    10.946       48     30.9    3.386   -9.900     1.29    0.000    0.000       26        9     2065  Maize_short_Chisinau_6June_Optimum_26_NCC.PRM
  Tot(86)        6        6     2066     45.2    636.2   1375.0   440.00      0.0     45.2      0.0      0.0      0.0     75.2       18    166.8    166.8       77     0.000     0.000     0.000     0.000       91        0        0        0        4       33       18     8.943       40     28.2    2.518   -9.900     1.08    0.000    0.000       26        9     2066  Maize_short_Chisinau_6June_Optimum_26_NCC.PRM
  Tot(87)        6        6     2067    132.1    500.1   1221.3   439.00      0.0    124.8      7.3     11.4      0.0    124.4       48    193.0    193.0       84     0.000     0.000     0.000     0.000      107        0        0        0       17       19       16    14.255       71     40.4    5.763   -9.900     1.82    0.000    0.000       26        9     2067  Maize_short_Chisinau_6June_Optimum_26_NCC.PRM
  Tot(88)        6        6     2068    199.9    519.6   1391.2   439.00      0.0    194.9      5.0     19.0      0.0    113.0       46    267.1    266.8       94     0.000     0.000     0.000     0.000      107        0        0        0        6       13        7    19.661       84     40.2    7.898   -9.900     2.08    0.000    0.000       26        9     2068  Maize_short_Chisinau_6June_Optimum_26_NCC.PRM
  Tot(89)        6        6     2069    117.7    577.7   1345.7   438.00      0.0    114.0      3.7      8.0      0.0     93.6       29    203.1    203.3       81     0.000     0.000     0.000     0.000      103        0        0        0        9       18       18    12.636       60     40.2    5.085   -9.900     1.72    0.000    0.000       26        9     2069  Maize_short_Chisinau_6June_Optimum_26_NCC.PRM
  Tot(90)        6        6     2070     81.9    564.7   1320.4   437.00      0.0     78.5      3.4      3.5      0.0     96.3       29    184.9    184.9       81     0.000     0.000     0.000     0.000      100        0        0        0        9       28       17    12.051       56     37.3    4.496   -9.900     1.60    0.000    0.000       26        9     2070  Maize_short_Chisinau_6June_Optimum_26_NCC.PRM
  Tot(91)        6        6     2071    135.0    521.5   1275.8   437.00      0.0    132.0      3.0      0.0      0.0    109.0       37    203.2    203.2       87     0.000     0.000     0.000     0.000      107        0        0        0       12       25        8    15.231       72     40.7    6.205   -9.900     1.99    0.000    0.000       26        9     2071  Maize_short_Chisinau_6June_Optimum_26_NCC.PRM
  Tot(92)        6        6     2072    141.8    475.5   1214.9   436.00      0.0    139.1      2.7      3.9      0.0    118.9       60    227.6    227.0       87     0.000     0.000     0.000     0.000      107        0        0        0       11        7       12    17.048       79     40.1    6.840   -9.900     1.97    0.000    0.000       26        9     2072  Maize_short_Chisinau_6June_Optimum_26_NCC.PRM
  Tot(93)        6        6     2073     85.1    599.0   1403.3   436.00      0.0     80.4      4.7      0.0      0.0     77.3       21    176.1    176.7       77     0.000     0.000     0.000     0.000       92        0        0        0        4       30       19     9.922       42     29.1    2.884   -9.900     1.22    0.000    0.000       26        9     2073  Maize_short_Chisinau_6June_Optimum_26_NCC.PRM
  Tot(94)        6        6     2074    201.6    409.3   1052.1   435.00      0.0    195.8      5.8     15.7      0.0    126.7       71    203.4    203.4      100     0.000     0.000     0.000     0.000      107        0        0        0       22        2        0    18.329       98     40.1    7.353   -9.900     2.23    0.000    0.000       26        9     2074  Maize_short_Chisinau_6June_Optimum_26_NCC.PRM
  Tot(95)        6        6     2075    245.3    525.1   1260.6   435.00      0.0    205.5     39.8      0.0      0.0    105.3       35    187.7    187.6       82     0.000     0.000     0.000     0.000      107        0        0        0       15       27       12    12.659       62     40.5    5.129   -9.900     1.75    0.000    0.000       26        9     2075  Maize_short_Chisinau_6June_Optimum_26_NCC.PRM
  Tot(96)        6        6     2076    157.4    544.8   1307.4   434.00      0.0    156.0      1.4      0.0      0.0    135.2       46    204.8    204.2       84     0.000     0.000     0.000     0.000      107        0        0        0       15       27        9    13.860       68     40.7    5.640   -9.900     1.66    0.000    0.000       26        9     2076  Maize_short_Chisinau_6June_Optimum_26_NCC.PRM
  Tot(97)        6        6     2077    186.1    446.8   1163.9   433.00      0.0    179.9      6.2      8.5      0.0    114.8       58    233.1    233.8      100     0.000     0.000     0.000     0.000      107        0        0        0       15        5        0    19.261       96     40.2    7.748   -9.900     2.23    0.000    0.000       26        9     2077  Maize_short_Chisinau_6June_Optimum_26_NCC.PRM
  Tot(98)        6        6     2078    123.2    595.0   1360.8   433.00      0.0    119.0      4.2      3.9      0.0    123.6       35    179.9    179.7       76     0.000     0.000     0.000     0.000      107        0        0        0       12       29       14    10.535       51     40.4    4.255   -9.900     1.40    0.000    0.000       26        9     2078  Maize_short_Chisinau_6June_Optimum_26_NCC.PRM
  Tot(99)        6        6     2079     80.6    598.8   1335.7   432.00      0.0     80.5      0.1      0.0      0.0     80.3       23    202.3    202.2       80     0.000     0.000     0.000     0.000      107        0        0        0        7       30       17    12.776       56     40.3    5.150   -9.900     1.82    0.000    0.000       26        9     2079  Maize_short_Chisinau_6June_Optimum_26_NCC.PRM
 Tot(100)        6        6     2080    112.4    551.8   1314.0   432.00      0.0    111.7      0.7      0.0      0.0    119.7       39    194.5    194.8       81     0.000     0.000     0.000     0.000      107        0        0        0       11       28       17    12.292       56     40.5    4.983   -9.900     1.59    0.000    0.000       26        9     2080  Maize_short_Chisinau_6June_Optimum_26_NCC.PRM
 Tot(101)        6        6     2081    105.4    575.1   1369.6   431.00      0.0    102.9      2.5      3.7      0.0    120.3       35    178.5    178.5       79     0.000     0.000     0.000     0.000       94        0        0        0        3       28       18    10.717       47     31.2    3.342   -9.900     1.16    0.000    0.000       26        9     2081  Maize_short_Chisinau_6June_Optimum_26_NCC.PRM
 Tot(102)        6        6     2082    103.8    495.1   1270.2   431.00      0.0    103.4      0.4      0.0      0.0     89.7       38    230.2    230.2       88     0.000     0.000     0.000     0.000      107        0        0        0        8        8       11    18.072       80     40.0    7.232   -9.900     2.26    0.000    0.000       26        9     2082  Maize_short_Chisinau_6June_Optimum_26_NCC.PRM
 Tot(103)        6        6     2083     92.2    565.6   1356.7   430.00      0.0     92.2      0.0      0.0      0.0    109.8       35    189.2    189.2       78     0.000     0.000     0.000     0.000       95        0        0        0        4       24       19    11.277       51     32.1    3.620   -9.900     1.22    0.000    0.000       26        9     2083  Maize_short_Chisinau_6June_Optimum_26_NCC.PRM
 Tot(104)        6        6     2084     79.0    593.0   1486.4   429.00      0.0     78.9      0.1      0.0      0.0    106.1       28    182.2    182.2       82     0.000     0.000     0.000     0.000      100        0        0        0        2       29       17    11.724       49     37.3    4.371   -9.900     1.52    0.000    0.000       26        9     2084  Maize_short_Chisinau_6June_Optimum_26_NCC.PRM
 Tot(105)        6        6     2085    116.1    507.0   1141.0   429.00      0.0    112.5      3.6      6.3      0.0     98.8       39    204.5    204.1       87     0.000     0.000     0.000     0.000      107        0        0        0       18       21       11    14.169       73     40.7    5.772   -9.900     1.90    0.000    0.000       26        9     2085  Maize_short_Chisinau_6June_Optimum_26_NCC.PRM
 Tot(106)        6        6     2086     36.0    620.1   1453.4   428.00      0.0     36.0      0.0      0.0      0.0     68.3       16    162.3    162.6       79     0.000     0.000     0.000     0.000       97        0        0        0        5       35       17     8.663       38     33.4    2.895   -9.900     1.28    0.000    0.000       26        9     2086  Maize_short_Chisinau_6June_Optimum_26_NCC.PRM
 Tot(107)        6        6     2087    149.4    527.5   1213.0   428.00      0.0    132.9     16.5     14.5      0.0    114.2       41    206.8    205.7       84     0.000     0.000     0.000     0.000      107        0        0        0       14       27       13    13.891       66     40.6    5.643   -9.900     1.76    0.000    0.000       26        9     2087  Maize_short_Chisinau_6June_Optimum_26_NCC.PRM
 Tot(108)        6        6     2088    180.8    502.0   1256.4   427.00      0.0    173.9      6.9     18.7      0.0    134.6       54    208.9    209.8       84     0.000     0.000     0.000     0.000      107        0        0        0       13       22       13    14.513       69     40.5    5.879   -9.900     1.71    0.000    0.000       26        9     2088  Maize_short_Chisinau_6June_Optimum_26_NCC.PRM
 Tot(109)        6        6     2089    118.3    546.9   1292.0   427.00      0.0    117.5      0.8      0.3      0.0     81.2       29    213.9    213.3       81     0.000     0.000     0.000     0.000      107        0        0        0        9       26       12    13.767       62     40.5    5.581   -9.900     1.89    0.000    0.000       26        9     2089  Maize_short_Chisinau_6June_Optimum_26_NCC.PRM
 Tot(110)        6        6     2090    112.3    527.2   1199.4   426.00      0.0    104.0      8.3     14.4      0.0    102.2       36    196.9    197.6       84     0.000     0.000     0.000     0.000      105        0        0        0       14       22       17    13.453       66     40.4    5.440   -9.900     1.82    0.000    0.000       26        9     2090  Maize_short_Chisinau_6June_Optimum_26_NCC.PRM
 Tot(111)        6        6     2091    114.4    538.3   1240.4   425.00      0.0    113.7      0.7      0.0      0.0     92.3       29    209.5    209.3       92     0.000     0.000     0.000     0.000      107        0        0        0       15       31        5    14.715       71     40.9    6.012   -9.900     1.99    0.000    0.000       26        9     2091  Maize_short_Chisinau_6June_Optimum_26_NCC.PRM
 Tot(112)        6        6     2092    119.0    485.5   1229.1   425.00      0.0    117.0      2.0      4.0      0.0    110.1       44    206.3    206.5       86     0.000     0.000     0.000     0.000      107        0        0        0       10       23       12    15.799       72     40.7    6.428   -9.900     2.03    0.000    0.000       26        9     2092  Maize_short_Chisinau_6June_Optimum_26_NCC.PRM
 Tot(113)        6        6     2093    129.5    497.1   1192.2   424.00      0.0    128.7      0.8      0.8      0.0    105.2       41    209.2    209.2       87     0.000     0.000     0.000     0.000      107        0        0        0       15       22       11    15.246       73     40.7    6.201   -9.900     1.97    0.000    0.000       26        9     2093  Maize_short_Chisinau_6June_Optimum_26_NCC.PRM
 Tot(114)        6        6     2094    104.6    606.1   1438.2   424.00      0.0    104.3      0.3      0.0      0.0     80.3       20    220.4    219.7       95     0.000     0.000     0.000     0.000      107        0        0        0        7       28        5    14.803       67     40.2    5.957   -9.900     1.98    0.000    0.000       26        9     2094  Maize_short_Chisinau_6June_Optimum_26_NCC.PRM
 Tot(115)        6        6     2095     99.8    562.5   1292.2   423.00      0.0     99.8      0.0      0.0      0.0     86.3       29    223.0    223.3       85     0.000     0.000     0.000     0.000      107        0        0        0       13       16       14    14.792       71     40.2    5.949   -9.900     1.92    0.000    0.000       26        9     2095  Maize_short_Chisinau_6June_Optimum_26_NCC.PRM
 Tot(116)        6        6     2096    226.5    434.3   1098.8   423.00      0.0    211.6     14.9     38.8      0.0    111.7       62    231.9    232.2      100     0.000     0.000     0.000     0.000      107        0        0        0       25        5        0    18.486       97     40.3    7.444   -9.900     2.17    0.000    0.000       26        9     2096  Maize_short_Chisinau_6June_Optimum_26_NCC.PRM
 Tot(117)        6        6     2097     73.9    527.3   1318.2   422.00      0.0     73.9      0.0      0.0      0.0     97.8       33    188.0    188.1       81     0.000     0.000     0.000     0.000      103        0        0        0       10       22       17    13.201       58     40.3    5.314   -9.900     1.86    0.000    0.000       26        9     2097  Maize_short_Chisinau_6June_Optimum_26_NCC.PRM
 Tot(118)        6        6     2098    137.5    512.3   1209.7   422.00      0.0    133.9      3.6      4.5      0.0    114.4       48    214.4    214.4       82     0.000     0.000     0.000     0.000      107        0        0        0       16       15       13    14.651       72     40.3    5.909   -9.900     1.80    0.000    0.000       26        9     2098  Maize_short_Chisinau_6June_Optimum_26_NCC.PRM
 Tot(119)        6        6     2099    126.0    527.7   1360.1   421.00      0.0    126.0      0.0      0.0      0.0    106.3       41    228.6    228.5       85     0.000     0.000     0.000     0.000      107        0        0        0        9       19       13    15.542       69     40.4    6.279   -9.900     1.88    0.000    0.000       26        9     2099  Maize_short_Chisinau_6June_Optimum_26_NCC.PRM
