AquaCrop 7.0 (August 2022) - Output created on (date) : 24-11-2022   at (time) : 10:12:01

    RunNr     Day1   Month1    Year1     Rain      ETo       GD     CO2      Irri   Infilt   Runoff    Drain   Upflow        E     E/Ex       Tr      TrW   Tr/Trx    SaltIn   SaltOut    SaltUp  SaltProf     Cycle   SaltStr  FertStr  WeedStr  TempStr   ExpStr   StoStr  BioMass  Brelative   HI    Y(dry)  Y(fresh)    WPet      Bin     Bout     DayN   MonthN    YearN
                                           mm       mm  degC.day    ppm        mm       mm       mm       mm       mm       mm        %       mm       mm        %    ton/ha    ton/ha    ton/ha    ton/ha      days       %        %        %        %        %        %    ton/ha        %       %    ton/ha   ton/ha    kg/m3   ton/ha   ton/ha
   Tot(1)        7        5     1981    150.4    483.8   1212.1   340.11      0.0    145.9      4.5     12.1      0.0     84.3       41    248.4    192.7       87     0.000     0.000     0.000     0.000      107        0       42       25       12        5        9    13.734       64     39.6    5.444   -9.900     1.64    0.000    0.000       27        8     1981  Maize_short_Chisinau_7May_NonOptimum_26_MOHC.PRM
   Tot(2)        7        5     1982    192.0    471.0   1188.7   341.22      0.0    191.9      0.1      0.0      0.0     76.4       35    258.6    198.8      100     0.000     0.000     0.000     0.000      107        0       42       25       11        2        0    15.957       74     40.0    6.384   -9.900     1.91    0.000    0.000       27        8     1982  Maize_short_Chisinau_7May_NonOptimum_26_MOHC.PRM
   Tot(3)        7        5     1983    269.2    465.2   1233.5   342.84      0.0    253.3     15.9     23.6      0.0     99.3       48    261.7    202.2      100     0.000     0.000     0.000     0.000      107        0       42       25        9        2        0    16.019       75     40.1    6.418   -9.900     1.78    0.000    0.000       27        8     1983  Maize_short_Chisinau_7May_NonOptimum_26_MOHC.PRM
   Tot(4)        7        5     1984    239.1    438.2   1067.3   344.40      0.0    237.1      2.0      2.8      0.0    134.8       75    245.6    191.3      100     0.000     0.000     0.000     0.000      107        0       42       25       17        0        0    15.222       75     40.0    6.090   -9.900     1.60    0.000    0.000       27        8     1984  Maize_short_Chisinau_7May_NonOptimum_26_MOHC.PRM
   Tot(5)        7        5     1985    292.8    461.8   1172.6   345.87      0.0    263.1     29.7     63.0      0.0    102.2       53    265.5    202.8      100     0.000     0.000     0.000     0.000      107        0       42       25       13        0        0    15.701       75     40.0    6.281   -9.900     1.71    0.000    0.000       27        8     1985  Maize_short_Chisinau_7May_NonOptimum_26_MOHC.PRM
   Tot(6)        7        5     1986    172.4    527.7   1261.6   347.19      0.0    171.9      0.5      0.0      0.0     89.5       39    281.4    219.1       93     0.000     0.000     0.000     0.000      107        0       42       25        8        5        4    14.907       69     40.0    5.965   -9.900     1.61    0.000    0.000       27        8     1986  Maize_short_Chisinau_7May_NonOptimum_26_MOHC.PRM
   Tot(7)        7        5     1987    259.6    481.6   1137.9   348.98      0.0    253.3      6.3      0.0      0.0    110.0       59    294.0    227.1      100     0.000     0.000     0.000     0.000      107        0       42       25       15        3        0    15.808       75     40.2    6.348   -9.900     1.57    0.000    0.000       27        8     1987  Maize_short_Chisinau_7May_NonOptimum_26_MOHC.PRM
   Tot(8)        7        5     1988    236.3    471.5   1252.6   351.45      0.0    227.3      9.0     15.1      0.0    121.2       71    286.2    223.5       93     0.000     0.000     0.000     0.000      107        0       42       25        9        3        5    15.514       70     39.9    6.196   -9.900     1.52    0.000    0.000       27        8     1988  Maize_short_Chisinau_7May_NonOptimum_26_MOHC.PRM
   Tot(9)        7        5     1989    210.4    486.7   1164.0   352.89      0.0    207.5      2.9      2.5      0.0     95.5       49    291.8    224.6       99     0.000     0.000     0.000     0.000      107        0       42       25       14        3        1    16.171       74     40.2    6.499   -9.900     1.68    0.000    0.000       27        8     1989  Maize_short_Chisinau_7May_NonOptimum_26_MOHC.PRM
  Tot(10)        7        5     1990    161.6    507.1   1149.5   354.16      0.0    158.4      3.2      2.2      0.0    115.0       55    257.2    200.1       86     0.000     0.000     0.000     0.000      107        0       42       25       16        5       11    13.812       62     39.9    5.514   -9.900     1.48    0.000    0.000       27        8     1990  Maize_short_Chisinau_7May_NonOptimum_26_MOHC.PRM
  Tot(11)        7        5     1991    438.7    420.7   1183.0   355.48      0.0    393.0     45.7     66.9      0.0    123.6       82    281.3    217.0      100     0.000     0.000     0.000     0.000      107        0       42       25       17        0        0    17.231       75     40.0    6.894   -9.900     1.70    0.000    0.000       27        8     1991  Maize_short_Chisinau_7May_NonOptimum_26_MOHC.PRM
  Tot(12)        7        5     1992    191.1    523.2   1230.9   356.27      0.0    188.5      2.6      5.7      0.0    128.5       66    273.6    212.5       83     0.000     0.000     0.000     0.000      107        0       42       25       16        4       13    13.651       60     39.5    5.391   -9.900     1.34    0.000    0.000       27        8     1992  Maize_short_Chisinau_7May_NonOptimum_26_MOHC.PRM
  Tot(13)        7        5     1993    202.8    503.8   1154.4   356.95      0.0    196.6      6.2     19.9      0.0    106.9       53    274.0    212.1       93     0.000     0.000     0.000     0.000      107        0       42       25       13        3        5    14.548       70     39.9    5.807   -9.900     1.52    0.000    0.000       27        8     1993  Maize_short_Chisinau_7May_NonOptimum_26_MOHC.PRM
  Tot(14)        7        5     1994    258.9    536.5   1263.4   358.63      0.0    219.5     39.4      7.8      0.0    105.8       45    256.5    201.0       84     0.000     0.000     0.000     0.000      107        0       42       25       10       11       11    12.833       57     39.7    5.096   -9.900     1.41    0.000    0.000       27        8     1994  Maize_short_Chisinau_7May_NonOptimum_26_MOHC.PRM
  Tot(15)        7        5     1995    186.0    502.8   1281.6   360.62      0.0    184.0      2.0      2.1      0.0     91.1       44    283.7    219.6       91     0.000     0.000     0.000     0.000      107        0       42       25        8        6        6    15.609       68     40.1    6.258   -9.900     1.67    0.000    0.000       27        8     1995  Maize_short_Chisinau_7May_NonOptimum_26_MOHC.PRM
  Tot(16)        7        5     1996    148.0    541.5   1272.6   362.37      0.0    147.1      0.9      0.0      0.0    101.4       38    231.0    181.7       85     0.000     0.000     0.000     0.000      107        0       42       25       10       18       10    12.116       55     40.5    4.906   -9.900     1.48    0.000    0.000       27        8     1996  Maize_short_Chisinau_7May_NonOptimum_26_MOHC.PRM
  Tot(17)        7        5     1997    305.0    448.8   1194.3   363.47      0.0    288.7     16.3      0.0      0.0     83.2       41    258.3    200.5      100     0.000     0.000     0.000     0.000      107        0       42       25       12        3        0    16.781       75     40.0    6.718   -9.900     1.97    0.000    0.000       27        8     1997  Maize_short_Chisinau_7May_NonOptimum_26_MOHC.PRM
  Tot(18)        7        5     1998    210.4    488.7   1249.2   366.50      0.0    205.7      4.7     10.9      0.0    111.7       61    290.0    223.4       94     0.000     0.000     0.000     0.000      107        0       42       25       14        1        5    15.740       71     39.9    6.287   -9.900     1.57    0.000    0.000       27        8     1998  Maize_short_Chisinau_7May_NonOptimum_26_MOHC.PRM
  Tot(19)        7        5     1999    158.4    516.7   1334.1   368.14      0.0    157.0      1.4      0.0      0.0    100.6       45    268.0    209.4       87     0.000     0.000     0.000     0.000      107        0       42       25        8        7       10    14.361       61     40.1    5.758   -9.900     1.56    0.000    0.000       27        8     1999  Maize_short_Chisinau_7May_NonOptimum_26_MOHC.PRM
  Tot(20)        7        5     2000    167.4    572.2   1257.5   369.41      0.0    163.5      3.9      0.0      0.0     68.3       25    276.6    216.9       91     0.000     0.000     0.000     0.000      107        0       42       25       11       15        6    14.018       64     40.2    5.631   -9.900     1.63    0.000    0.000       27        8     2000  Maize_short_Chisinau_7May_NonOptimum_26_MOHC.PRM
  Tot(21)        7        5     2001    210.4    518.6   1269.3   371.07      0.0    189.0     21.4     20.8      0.0    114.9       57    275.9    213.2       85     0.000     0.000     0.000     0.000      107        0       42       25       13        2       12    14.489       63     39.6    5.734   -9.900     1.47    0.000    0.000       27        8     2001  Maize_short_Chisinau_7May_NonOptimum_26_MOHC.PRM
  Tot(22)        7        5     2002    285.3    517.8   1347.8   373.16      0.0    259.1     26.2      0.0      0.0    101.6       45    297.0    230.4       96     0.000     0.000     0.000     0.000      107        0       42       25        7       18        2    16.142       69     40.9    6.603   -9.900     1.66    0.000    0.000       27        8     2002  Maize_short_Chisinau_7May_NonOptimum_26_MOHC.PRM
  Tot(23)        7        5     2003    186.5    574.0   1346.0   375.80      0.0    185.1      1.4      0.0      0.0     79.3       27    298.2    233.0       98     0.000     0.000     0.000     0.000      107        0       42       25        6       10        1    16.111       70     40.1    6.458   -9.900     1.71    0.000    0.000       27        8     2003  Maize_short_Chisinau_7May_NonOptimum_26_MOHC.PRM
  Tot(24)        7        5     2004    218.3    504.4   1151.0   377.49      0.0    209.4      8.9      0.0      0.0    107.5       51    288.6    225.0       96     0.000     0.000     0.000     0.000      107        0       42       25       16       11        3    15.863       70     40.3    6.397   -9.900     1.62    0.000    0.000       27        8     2004  Maize_short_Chisinau_7May_NonOptimum_26_MOHC.PRM
  Tot(25)        7        5     2005    328.8    485.2   1234.8   379.80      0.0    312.1     16.7     20.4      0.0    126.4       64    298.8    230.9      100     0.000     0.000     0.000     0.000      107        0       42       25       10        1        0    17.366       75     40.1    6.959   -9.900     1.64    0.000    0.000       27        8     2005  Maize_short_Chisinau_7May_NonOptimum_26_MOHC.PRM
  Tot(26)        7        5     2006    272.0    533.8   1259.8   381.90      0.0    265.7      6.3      5.5      0.0    142.1       70    318.0    246.4       94     0.000     0.000     0.000     0.000      107        0       42       25       10        4        5    16.158       70     40.2    6.498   -9.900     1.41    0.000    0.000       27        8     2006  Maize_short_Chisinau_7May_NonOptimum_26_MOHC.PRM
  Tot(27)        7        5     2007    144.6    648.6   1473.6   383.77      0.0    144.1      0.5      0.0      0.0    103.1       31    250.0    199.0       78     0.000     0.000     0.000     0.000      107        0       42       25        2       20       16    11.151       47     40.1    4.473   -9.900     1.27    0.000    0.000       27        8     2007  Maize_short_Chisinau_7May_NonOptimum_26_MOHC.PRM
  Tot(28)        7        5     2008    177.3    560.5   1291.6   385.59      0.0    172.8      4.5      0.0      0.0     88.5       38    300.9    233.9       88     0.000     0.000     0.000     0.000      107        0       42       25        6       10        9    15.116       64     40.2    6.082   -9.900     1.56    0.000    0.000       27        8     2008  Maize_short_Chisinau_7May_NonOptimum_26_MOHC.PRM
  Tot(29)        7        5     2009    161.5    583.3   1333.2   387.37      0.0    160.0      1.5      0.0      0.0     86.6       33    293.0    228.8       86     0.000     0.000     0.000     0.000      107        0       42       25        6       10       11    14.287       61     39.9    5.698   -9.900     1.50    0.000    0.000       27        8     2009  Maize_short_Chisinau_7May_NonOptimum_26_MOHC.PRM
  Tot(30)        7        5     2010    248.4    518.6   1414.0   389.85      0.0    235.0     13.4      0.2      0.0    121.5       59    315.2    243.3       96     0.000     0.000     0.000     0.000      107        0       42       25        7        1        3    16.950       72     40.0    6.776   -9.900     1.55    0.000    0.000       27        8     2010  Maize_short_Chisinau_7May_NonOptimum_26_MOHC.PRM
  Tot(31)        7        5     2011    234.3    546.6   1320.9   391.63      0.0    220.0     14.3      7.4      0.0    112.6       48    306.3    237.6       95     0.000     0.000     0.000     0.000      107        0       42       25        6        2        4    16.151       71     40.0    6.458   -9.900     1.54    0.000    0.000       27        8     2011  Maize_short_Chisinau_7May_NonOptimum_26_MOHC.PRM
  Tot(32)        7        5     2012    192.6    618.6   1442.0   393.82      0.0    189.8      2.8      1.7      0.0    129.4       45    271.7    214.9       80     0.000     0.000     0.000     0.000      107        0       42       25        6       19       15    12.345       52     40.0    4.941   -9.900     1.23    0.000    0.000       27        8     2012  Maize_short_Chisinau_7May_NonOptimum_26_MOHC.PRM
  Tot(33)        7        5     2013    286.6    541.7   1380.1   396.48      0.0    259.3     27.3      1.1      0.0    118.5       54    322.6    250.5       94     0.000     0.000     0.000     0.000      107        0       42       25        4        2        4    16.955       71     39.9    6.770   -9.900     1.53    0.000    0.000       27        8     2013  Maize_short_Chisinau_7May_NonOptimum_26_MOHC.PRM
  Tot(34)        7        5     2014    244.6    539.8   1326.2   398.55      0.0    239.3      5.3      8.4      0.0    121.7       59    306.3    236.1       90     0.000     0.000     0.000     0.000      107        0       42       25        7        6        8    15.565       66     40.0    6.224   -9.900     1.45    0.000    0.000       27        8     2014  Maize_short_Chisinau_7May_NonOptimum_26_MOHC.PRM
  Tot(35)        7        5     2015    123.0    600.5   1355.8   401.00      0.0    122.8      0.2      0.3      0.0     77.9       29    262.6    207.0       79     0.000     0.000     0.000     0.000      107        0       42       25        6       10       16    12.611       54     39.5    4.978   -9.900     1.46    0.000    0.000       27        8     2015  Maize_short_Chisinau_7May_NonOptimum_26_MOHC.PRM
  Tot(36)        7        5     2016    255.7    540.8   1325.7   403.00      0.0    238.9     16.8     33.2      0.0    141.5       73    285.1    221.1       81     0.000     0.000     0.000     0.000      107        0       42       25       10        5       15    13.866       58     39.7    5.504   -9.900     1.29    0.000    0.000       27        8     2016  Maize_short_Chisinau_7May_NonOptimum_26_MOHC.PRM
  Tot(37)        7        5     2017    299.1    552.7   1316.4   405.00      0.0    280.2     18.9     14.6      0.0    112.9       53    345.6    266.1       98     0.000     0.000     0.000     0.000      107        0       42       25        9        2        1    17.456       74     40.1    6.994   -9.900     1.53    0.000    0.000       27        8     2017  Maize_short_Chisinau_7May_NonOptimum_26_MOHC.PRM
  Tot(38)        7        5     2018    279.9    546.1   1430.7   408.00      0.0    265.8     14.1      6.4      0.0    100.9       42    319.5    247.2      100     0.000     0.000     0.000     0.000      107        0       42       25        5        2        0    17.624       74     40.0    7.050   -9.900     1.68    0.000    0.000       27        8     2018  Maize_short_Chisinau_7May_NonOptimum_26_MOHC.PRM
  Tot(39)        7        5     2019    233.9    552.0   1390.8   410.00      0.0    225.8      8.1     15.5      0.0    132.2       61    296.4    233.0       87     0.000     0.000     0.000     0.000      107        0       42       25        3        9       10    15.153       63     40.1    6.084   -9.900     1.42    0.000    0.000       27        8     2019  Maize_short_Chisinau_7May_NonOptimum_26_MOHC.PRM
  Tot(40)        7        5     2020    104.0    653.3   1428.1   412.00      0.0    101.2      2.8      5.3      0.0    105.2       33    204.3    161.3       70     0.000     0.000     0.000     0.000       94        0       42       25       15       17       22     8.814       37     30.3    2.668   -9.900     0.87    0.000    0.000       27        8     2020  Maize_short_Chisinau_7May_NonOptimum_26_MOHC.PRM
  Tot(41)        7        5     2021     93.7    642.4   1469.2   414.00      0.0     91.8      1.9      7.3      0.0     95.6       28    192.0    152.7       70     0.000     0.000     0.000     0.000      107        0       42       25        7       26       24     8.083       33     39.7    3.206   -9.900     1.11    0.000    0.000       27        8     2021  Maize_short_Chisinau_7May_NonOptimum_26_MOHC.PRM
  Tot(42)        7        5     2022    101.8    676.1   1573.6   417.00      0.0     99.7      2.1      3.1      0.0     99.3       28    210.1    166.4       73     0.000     0.000     0.000     0.000       95        0       42       25        4       23       20     9.225       38     31.7    2.922   -9.900     0.95    0.000    0.000       27        8     2022  Maize_short_Chisinau_7May_NonOptimum_26_MOHC.PRM
  Tot(43)        7        5     2023     87.2    733.9   1620.3   419.00      0.0     86.9      0.3      0.0      0.0    105.3       24    188.7    150.8       73     0.000     0.000     0.000     0.000       90        0       42       25        3       28       20     7.900       32     27.0    2.136   -9.900     0.74    0.000    0.000       27        8     2023  Maize_short_Chisinau_7May_NonOptimum_26_MOHC.PRM
  Tot(44)        7        5     2024    138.9    599.5   1461.6   421.00      0.0    136.2      2.7      0.0      0.0     87.0       36    274.4    214.2       78     0.000     0.000     0.000     0.000      107        0       42       25        4        7       17    13.221       54     38.9    5.138   -9.900     1.42    0.000    0.000       27        8     2024  Maize_short_Chisinau_7May_NonOptimum_26_MOHC.PRM
  Tot(45)        7        5     2025     90.3    627.7   1360.5   423.00      0.0     89.6      0.7      1.8      0.0     93.9       27    176.3    141.0       70     0.000     0.000     0.000     0.000       88        0       42       25       15       29       21     7.326       31     24.6    1.801   -9.900     0.71    0.000    0.000       27        8     2025  Maize_short_Chisinau_7May_NonOptimum_26_MOHC.PRM
  Tot(46)        7        5     2026    126.3    701.8   1543.8   424.00      0.0    120.7      5.6      0.4      0.0     93.9       27    247.8    195.8       75     0.000     0.000     0.000     0.000      101        0       42       25        7       16       21    10.476       43     36.8    3.852   -9.900     1.13    0.000    0.000       27        8     2026  Maize_short_Chisinau_7May_NonOptimum_26_MOHC.PRM
  Tot(47)        7        5     2027     60.2    694.8   1536.4   426.00      0.0     60.2      0.0      0.0      0.0     89.2       22    173.5    139.0       70     0.000     0.000     0.000     0.000       87        0       42       25       10       30       22     7.040       29     23.5    1.658   -9.900     0.66    0.000    0.000       27        8     2027  Maize_short_Chisinau_7May_NonOptimum_26_MOHC.PRM
  Tot(48)        7        5     2028    125.8    712.2   1522.8   428.00      0.0    118.0      7.8      5.9      0.0    122.3       31    191.2    151.8       68     0.000     0.000     0.000     0.000       85        0       42       25        8       27       23     6.953       28     21.4    1.487   -9.900     0.48    0.000    0.000       27        8     2028  Maize_short_Chisinau_7May_NonOptimum_26_MOHC.PRM
  Tot(49)        7        5     2029    123.8    609.2   1474.2   429.00      0.0    118.3      5.5     22.4      0.0     99.6       37    214.6    168.0       71     0.000     0.000     0.000     0.000       97        0       42       25        9       13       22     9.939       41     33.0    3.277   -9.900     1.05    0.000    0.000       27        8     2029  Maize_short_Chisinau_7May_NonOptimum_26_MOHC.PRM
  Tot(50)        7        5     2030     89.1    755.0   1654.7   431.00      0.0     88.8      0.3      0.0      0.0     90.8       22    211.1    167.0       69     0.000     0.000     0.000     0.000       91        0       42       25        5       23       22     8.215       33     27.0    2.218   -9.900     0.76    0.000    0.000       27        8     2030  Maize_short_Chisinau_7May_NonOptimum_26_MOHC.PRM
  Tot(51)        7        5     2031    115.5    656.2   1525.9   432.00      0.0    114.7      0.8      1.3      0.0     95.4       31    234.7    184.7       72     0.000     0.000     0.000     0.000      102        0       42       25        6       16       23    10.476       43     37.4    3.917   -9.900     1.20    0.000    0.000       27        8     2031  Maize_short_Chisinau_7May_NonOptimum_26_MOHC.PRM
  Tot(52)        7        5     2032     72.3    754.4   1677.3   433.00      0.0     66.5      5.8      9.6      0.0     80.6       18    177.3    141.8       68     0.000     0.000     0.000     0.000       85        0       42       25        2       29       22     6.819       28     15.4    1.050   -9.900     0.41    0.000    0.000       27        8     2032  Maize_short_Chisinau_7May_NonOptimum_26_MOHC.PRM
  Tot(53)        7        5     2033    128.5    714.0   1640.0   435.00      0.0    128.1      0.4      0.0      0.0    120.7       33    217.1    171.0       69     0.000     0.000     0.000     0.000       93        0       42       25        1       18       22     8.928       37     29.0    2.593   -9.900     0.78    0.000    0.000       27        8     2033  Maize_short_Chisinau_7May_NonOptimum_26_MOHC.PRM
  Tot(54)        7        5     2034    186.4    547.9   1348.2   436.00      0.0    179.5      6.9     18.0      0.0    109.8       57    277.7    215.2       79     0.000     0.000     0.000     0.000      107        0       42       25       10        2       14    14.546       60     39.1    5.688   -9.900     1.47    0.000    0.000       27        8     2034  Maize_short_Chisinau_7May_NonOptimum_26_MOHC.PRM
  Tot(55)        7        5     2035     92.4    643.9   1506.8   437.00      0.0     92.2      0.2      0.0      0.0    101.8       32    202.5    160.2       72     0.000     0.000     0.000     0.000       92        0       42       25        4       21       21     8.744       36     28.5    2.490   -9.900     0.83    0.000    0.000       27        8     2035  Maize_short_Chisinau_7May_NonOptimum_26_MOHC.PRM
  Tot(56)        7        5     2036    130.1    697.5   1528.0   438.00      0.0    128.7      1.4      0.0      0.0     95.0       31    256.9    200.6       69     0.000     0.000     0.000     0.000      107        0       42       25        5       11       28    10.447       43     36.9    3.857   -9.900     1.10    0.000    0.000       27        8     2036  Maize_short_Chisinau_7May_NonOptimum_26_MOHC.PRM
  Tot(57)        7        5     2037     90.0    698.5   1582.2   438.00      0.0     89.1      0.9      0.0      0.0    103.6       28    192.1    151.7       69     0.000     0.000     0.000     0.000       88        0       42       25        5       24       22     7.753       32     24.4    1.891   -9.900     0.64    0.000    0.000       27        8     2037  Maize_short_Chisinau_7May_NonOptimum_26_MOHC.PRM
  Tot(58)        7        5     2038    124.6    563.0   1385.8   439.00      0.0    123.4      1.2      3.0      0.0    115.5       51    228.0    177.3       74     0.000     0.000     0.000     0.000      104        0       42       25       10        6       21    11.664       48     38.5    4.496   -9.900     1.31    0.000    0.000       27        8     2038  Maize_short_Chisinau_7May_NonOptimum_26_MOHC.PRM
  Tot(59)        7        5     2039    116.8    696.7   1575.6   440.00      0.0    114.7      2.1      0.0      0.0    126.7       34    191.2    151.3       69     0.000     0.000     0.000     0.000       88        0       42       25        4       25       22     7.835       32     24.4    1.909   -9.900     0.63    0.000    0.000       27        8     2039  Maize_short_Chisinau_7May_NonOptimum_26_MOHC.PRM
  Tot(60)        7        5     2040     20.1    682.1   1466.1   440.00      0.0     20.1      0.0      0.0      0.0     53.0       12    165.2    133.3       74     0.000     0.000     0.000     0.000       88        0       42       25        6       34       20     6.861       28     24.9    1.711   -9.900     0.81    0.000    0.000       27        8     2040  Maize_short_Chisinau_7May_NonOptimum_26_MOHC.PRM
  Tot(61)        7        5     2041     91.1    679.9   1468.7   441.00      0.0     89.4      1.7      7.0      0.0     93.9       27    197.9    156.2       71     0.000     0.000     0.000     0.000       90        0       42       25       12       24       22     8.158       33     26.5    2.160   -9.900     0.75    0.000    0.000       27        8     2041  Maize_short_Chisinau_7May_NonOptimum_26_MOHC.PRM
  Tot(62)        7        5     2042    113.7    577.5   1401.8   441.00      0.0    113.4      0.3      0.0      0.0     81.6       34    254.9    199.9       78     0.000     0.000     0.000     0.000      107        0       42       25        9       21       19    12.141       50     39.7    4.817   -9.900     1.43    0.000    0.000       27        8     2042  Maize_short_Chisinau_7May_NonOptimum_26_MOHC.PRM
  Tot(63)        7        5     2043    109.4    716.7   1629.4   441.00      0.0    109.4      0.0      0.0      0.0    116.4       31    209.0    164.7       70     0.000     0.000     0.000     0.000       94        0       42       25        2       20       22     9.049       37     30.1    2.726   -9.900     0.84    0.000    0.000       27        8     2043  Maize_short_Chisinau_7May_NonOptimum_26_MOHC.PRM
  Tot(64)        7        5     2044    235.7    579.4   1402.5   442.00      0.0    228.6      7.1     26.1      0.0    133.0       67    295.5    229.2       80     0.000     0.000     0.000     0.000      107        0       42       25       10        3       17    14.072       57     38.9    5.477   -9.900     1.28    0.000    0.000       27        8     2044  Maize_short_Chisinau_7May_NonOptimum_26_MOHC.PRM
  Tot(65)        7        5     2045    184.8    631.7   1482.7   442.00      0.0    164.7     20.1     43.6      0.0    112.2       41    229.5    179.7       71     0.000     0.000     0.000     0.000       99        0       42       25        3       13       22    10.562       43     34.8    3.672   -9.900     1.09    0.000    0.000       27        8     2045  Maize_short_Chisinau_7May_NonOptimum_26_MOHC.PRM
  Tot(66)        7        5     2046     98.2    773.7   1750.4   442.00      0.0     96.4      1.8      3.1      0.0    109.1       23    184.5    147.9       69     0.000     0.000     0.000     0.000       84        0       42       25        3       31       22     6.664       27     11.5    0.764   -9.900     0.27    0.000    0.000       27        8     2046  Maize_short_Chisinau_7May_NonOptimum_26_MOHC.PRM
  Tot(67)        7        5     2047    118.6    672.6   1579.5   442.00      0.0    114.5      4.1      7.7      0.0    119.0       34    197.8    156.6       72     0.000     0.000     0.000     0.000       91        0       42       25        6       23       22     8.537       35     27.5    2.346   -9.900     0.74    0.000    0.000       27        8     2047  Maize_short_Chisinau_7May_NonOptimum_26_MOHC.PRM
  Tot(68)        7        5     2048    173.3    593.9   1420.0   442.00      0.0    164.8      8.5      0.0      0.0     98.3       42    290.1    225.5       80     0.000     0.000     0.000     0.000      107        0       42       25        8        7       16    13.294       55     39.5    5.246   -9.900     1.35    0.000    0.000       27        8     2048  Maize_short_Chisinau_7May_NonOptimum_26_MOHC.PRM
  Tot(69)        7        5     2049     96.2    606.6   1551.7   443.00      0.0     96.1      0.1      0.0      0.0     95.4       29    203.4    161.7       75     0.000     0.000     0.000     0.000      107        0       42       25        3       21       18     9.538       39     40.0    3.818   -9.900     1.28    0.000    0.000       27        8     2049  Maize_short_Chisinau_7May_NonOptimum_26_MOHC.PRM
  Tot(70)        7        5     2050     99.8    629.2   1494.8   443.00      0.0     97.9      1.9      2.1      0.0     97.9       31    206.5    162.6       72     0.000     0.000     0.000     0.000       94        0       42       25        9       20       21     9.063       37     30.6    2.773   -9.900     0.93    0.000    0.000       27        8     2050  Maize_short_Chisinau_7May_NonOptimum_26_MOHC.PRM
  Tot(71)        7        5     2051    119.2    653.3   1530.6   443.00      0.0    115.7      3.5      7.2      0.0    113.6       36    208.5    164.0       71     0.000     0.000     0.000     0.000       93        0       42       25        9       18       22     8.957       37     29.4    2.631   -9.900     0.82    0.000    0.000       27        8     2051  Maize_short_Chisinau_7May_NonOptimum_26_MOHC.PRM
  Tot(72)        7        5     2052    127.3    619.3   1540.6   443.00      0.0    126.7      0.6      2.1      0.0     99.5       37    251.5    198.0       72     0.000     0.000     0.000     0.000      107        0       42       25        5       18       23    11.540       47     38.9    4.488   -9.900     1.28    0.000    0.000       27        8     2052  Maize_short_Chisinau_7May_NonOptimum_26_MOHC.PRM
  Tot(73)        7        5     2053     90.0    691.4   1622.1   443.00      0.0     90.0      0.0      0.0      0.0     99.7       26    204.8    162.9       71     0.000     0.000     0.000     0.000       95        0       42       25        2       26       22     8.627       35     31.4    2.711   -9.900     0.90    0.000    0.000       27        8     2053  Maize_short_Chisinau_7May_NonOptimum_26_MOHC.PRM
  Tot(74)        7        5     2054    140.8    618.8   1498.8   443.00      0.0    136.7      4.1     11.1      0.0    132.5       43    207.7    163.7       74     0.000     0.000     0.000     0.000       96        0       42       25        4       21       21     9.570       39     32.6    3.117   -9.900     0.92    0.000    0.000       27        8     2054  Maize_short_Chisinau_7May_NonOptimum_26_MOHC.PRM
  Tot(75)        7        5     2055    118.9    638.9   1509.0   443.00      0.0    108.5     10.4     31.9      0.0     87.9       24    187.1    150.1       75     0.000     0.000     0.000     0.000       94        0       42       25        9       30       19     8.136       33     31.2    2.534   -9.900     0.93    0.000    0.000       27        8     2055  Maize_short_Chisinau_7May_NonOptimum_26_MOHC.PRM
  Tot(76)        7        5     2056    163.2    642.5   1524.9   442.00      0.0    159.4      3.8      1.8      0.0    110.8       43    270.1    210.2       75     0.000     0.000     0.000     0.000      106        0       42       25        4        7       21    12.329       50     38.5    4.743   -9.900     1.25    0.000    0.000       27        8     2056  Maize_short_Chisinau_7May_NonOptimum_26_MOHC.PRM
  Tot(77)        7        5     2057    142.5    663.6   1550.5   442.00      0.0    141.7      0.8      0.0      0.0    103.3       36    261.2    203.7       76     0.000     0.000     0.000     0.000      103        0       42       25        8        6       21    11.563       47     38.4    4.438   -9.900     1.22    0.000    0.000       27        8     2057  Maize_short_Chisinau_7May_NonOptimum_26_MOHC.PRM
  Tot(78)        7        5     2058     79.9    639.8   1513.8   442.00      0.0     79.8      0.1      0.0      0.0     88.2       27    206.5    163.5       72     0.000     0.000     0.000     0.000       97        0       42       25        8       23       22     9.315       38     33.5    3.124   -9.900     1.07    0.000    0.000       27        8     2058  Maize_short_Chisinau_7May_NonOptimum_26_MOHC.PRM
  Tot(79)        7        5     2059     82.9    643.1   1509.5   442.00      0.0     82.7      0.2      0.0      0.0     93.9       25    189.4    151.6       74     0.000     0.000     0.000     0.000      107        0       42       25        9       31       22     8.173       33     40.1    3.277   -9.900     1.16    0.000    0.000       27        8     2059  Maize_short_Chisinau_7May_NonOptimum_26_MOHC.PRM
  Tot(80)        7        5     2060     91.4    585.4   1419.4   442.00      0.0     84.0      7.4     24.2      0.0     83.4       29    187.8    148.5       73     0.000     0.000     0.000     0.000       94        0       42       25       11       22       21     9.105       37     30.6    2.788   -9.900     1.03    0.000    0.000       27        8     2060  Maize_short_Chisinau_7May_NonOptimum_26_MOHC.PRM
  Tot(81)        7        5     2061     84.8    635.0   1524.6   441.00      0.0     81.1      3.7      6.9      0.0     93.9       28    191.8    151.7       71     0.000     0.000     0.000     0.000       92        0       42       25        8       21       21     8.824       36     28.8    2.543   -9.900     0.91    0.000    0.000       27        8     2061  Maize_short_Chisinau_7May_NonOptimum_26_MOHC.PRM
  Tot(82)        7        5     2062    107.7    637.7   1504.9   441.00      0.0    107.7      0.0      0.0      0.0    116.5       33    191.2    151.8       73     0.000     0.000     0.000     0.000       94        0       42       25        6       24       20     8.671       35     30.9    2.681   -9.900     0.92    0.000    0.000       27        8     2062  Maize_short_Chisinau_7May_NonOptimum_26_MOHC.PRM
  Tot(83)        7        5     2063    210.1    601.7   1487.9   441.00      0.0    177.4     32.7     43.5      0.0    112.9       42    210.7    165.2       71     0.000     0.000     0.000     0.000       95        0       42       25        9       17       22     9.582       39     31.2    2.989   -9.900     0.95    0.000    0.000       27        8     2063  Maize_short_Chisinau_7May_NonOptimum_26_MOHC.PRM
  Tot(84)        7        5     2064     86.0    644.7   1544.9   440.00      0.0     85.5      0.5      4.8      0.0    100.7       30    184.4    145.9       69     0.000     0.000     0.000     0.000       90        0       42       25        5       24       22     8.222       33     26.3    2.165   -9.900     0.77    0.000    0.000       27        8     2064  Maize_short_Chisinau_7May_NonOptimum_26_MOHC.PRM
  Tot(85)        7        5     2065     42.6    739.8   1614.4   440.00      0.0     42.6      0.0      0.0      0.0     76.3       15    157.6    127.9       71     0.000     0.000     0.000     0.000       83        0       42       25        2       36       20     5.777       23     20.4    1.176   -9.900     0.51    0.000    0.000       27        8     2065  Maize_short_Chisinau_7May_NonOptimum_26_MOHC.PRM
  Tot(86)        7        5     2066    223.8    620.8   1465.4   440.00      0.0    189.2     34.6      0.4      0.0    110.9       35    218.0    172.1       74     0.000     0.000     0.000     0.000      107        0       42       25        6       23       17     9.402       39     39.8    3.744   -9.900     1.14    0.000    0.000       27        8     2066  Maize_short_Chisinau_7May_NonOptimum_26_MOHC.PRM
  Tot(87)        7        5     2067    100.2    625.5   1439.4   439.00      0.0     99.2      1.0      0.7      0.0    110.6       31    174.1    139.2       71     0.000     0.000     0.000     0.000      107        0       42       25        6       29       17     7.501       31     26.0    1.953   -9.900     0.69    0.000    0.000       27        8     2067  Maize_short_Chisinau_7May_NonOptimum_26_MOHC.PRM
  Tot(88)        7        5     2068    180.5    561.9   1343.1   439.00      0.0    177.4      3.1      1.3      0.0     95.1       46    299.0    231.2       83     0.000     0.000     0.000     0.000      107        0       42       25       11        4       14    14.557       60     39.5    5.754   -9.900     1.46    0.000    0.000       27        8     2068  Maize_short_Chisinau_7May_NonOptimum_26_MOHC.PRM
  Tot(89)        7        5     2069    123.6    593.9   1444.7   438.00      0.0    120.5      3.1     14.3      0.0    112.8       44    214.2    170.0       69     0.000     0.000     0.000     0.000      107        0       42       25        8       22       26    10.070       41     39.2    3.951   -9.900     1.21    0.000    0.000       27        8     2069  Maize_short_Chisinau_7May_NonOptimum_26_MOHC.PRM
  Tot(90)        7        5     2070    112.5    583.8   1421.3   437.00      0.0     89.5     23.0     23.7      0.0     82.9       30    195.2    153.7       72     0.000     0.000     0.000     0.000       94        0       42       25       11       20       21     9.099       37     30.5    2.776   -9.900     1.03    0.000    0.000       27        8     2070  Maize_short_Chisinau_7May_NonOptimum_26_MOHC.PRM
  Tot(91)        7        5     2071    143.9    597.7   1419.3   437.00      0.0    135.0      8.9      0.0      0.0     91.6       31    215.4    170.1       73     0.000     0.000     0.000     0.000      107        0       42       25        8       24       21    10.093       43     39.5    3.991   -9.900     1.30    0.000    0.000       27        8     2071  Maize_short_Chisinau_7May_NonOptimum_26_MOHC.PRM
  Tot(92)        7        5     2072     77.9    602.6   1379.7   436.00      0.0     77.5      0.4      0.8      0.0     99.1       31    181.2    143.8       73     0.000     0.000     0.000     0.000       93        0       42       25       10       25       19     8.404       34     30.0    2.521   -9.900     0.91    0.000    0.000       27        8     2072  Maize_short_Chisinau_7May_NonOptimum_26_MOHC.PRM
  Tot(93)        7        5     2073     82.4    687.7   1625.2   436.00      0.0     82.1      0.3      0.0      0.0     79.9       23    222.0    175.8       69     0.000     0.000     0.000     0.000      103        0       42       25        1       25       26     9.050       37     38.9    3.522   -9.900     1.17    0.000    0.000       27        8     2073  Maize_short_Chisinau_7May_NonOptimum_26_MOHC.PRM
  Tot(94)        7        5     2074    102.3    594.4   1323.6   435.00      0.0    102.2      0.1      0.0      0.0     84.1       34    242.3    188.7       76     0.000     0.000     0.000     0.000      104        0       42       25       15        9       20    11.437       48     38.8    4.436   -9.900     1.36    0.000    0.000       27        8     2074  Maize_short_Chisinau_7May_NonOptimum_26_MOHC.PRM
  Tot(95)        7        5     2075    149.3    578.7   1439.5   435.00      0.0    149.2      0.1      0.0      0.0    136.5       57    233.5    182.1       75     0.000     0.000     0.000     0.000      103        0       42       25        7        7       20    11.388       47     38.6    4.393   -9.900     1.21    0.000    0.000       27        8     2075  Maize_short_Chisinau_7May_NonOptimum_26_MOHC.PRM
  Tot(96)        7        5     2076     88.2    705.5   1627.8   434.00      0.0     87.9      0.3      0.2      0.0     96.4       26    203.8    161.3       71     0.000     0.000     0.000     0.000       91        0       42       25        4       23       22     8.446       34     27.3    2.305   -9.900     0.77    0.000    0.000       27        8     2076  Maize_short_Chisinau_7May_NonOptimum_26_MOHC.PRM
  Tot(97)        7        5     2077     90.7    713.0   1516.1   433.00      0.0     90.7      0.0      0.0      0.0    109.3       26    183.3    146.2       71     0.000     0.000     0.000     0.000       87        0       42       25        4       28       21     7.229       29     23.7    1.714   -9.900     0.59    0.000    0.000       27        8     2077  Maize_short_Chisinau_7May_NonOptimum_26_MOHC.PRM
  Tot(98)        7        5     2078    147.7    611.4   1538.8   433.00      0.0    146.7      1.0      4.7      0.0    137.3       46    221.6    174.2       77     0.000     0.000     0.000     0.000       98        0       42       25        4       19       20    10.305       42     34.5    3.554   -9.900     0.99    0.000    0.000       27        8     2078  Maize_short_Chisinau_7May_NonOptimum_26_MOHC.PRM
  Tot(99)        7        5     2079     87.5    629.8   1489.4   432.00      0.0     87.4      0.1      0.0      0.0     89.6       29    214.9    169.1       73     0.000     0.000     0.000     0.000       98        0       42       25        8       18       21     9.876       40     34.2    3.381   -9.900     1.14    0.000    0.000       27        8     2079  Maize_short_Chisinau_7May_NonOptimum_26_MOHC.PRM
 Tot(100)        7        5     2080    160.6    648.6   1468.8   432.00      0.0    140.4     20.2     38.0      0.0    103.5       35    216.7    170.2       68     0.000     0.000     0.000     0.000       96        0       42       25        9       17       23     9.500       39     31.7    3.011   -9.900     0.94    0.000    0.000       27        8     2080  Maize_short_Chisinau_7May_NonOptimum_26_MOHC.PRM
 Tot(101)        7        5     2081     89.8    698.0   1656.7   431.00      0.0     89.8      0.0      0.0      0.0    100.3       25    184.6    147.1       70     0.000     0.000     0.000     0.000       88        0       42       25        2       27       21     7.559       31     24.5    1.854   -9.900     0.67    0.000    0.000       27        8     2081  Maize_short_Chisinau_7May_NonOptimum_26_MOHC.PRM
 Tot(102)        7        5     2082     92.7    720.6   1618.2   431.00      0.0     87.7      5.0     12.6      0.0     99.0       23    178.1    142.8       72     0.000     0.000     0.000     0.000       86        0       42       25        5       30       21     7.145       29     23.1    1.650   -9.900     0.60    0.000    0.000       27        8     2082  Maize_short_Chisinau_7May_NonOptimum_26_MOHC.PRM
 Tot(103)        7        5     2083     98.4    693.7   1579.8   430.00      0.0     97.5      0.9      0.0      0.0     92.4       24    203.7    161.5       72     0.000     0.000     0.000     0.000       91        0       42       25        3       24       21     8.116       33     27.5    2.233   -9.900     0.79    0.000    0.000       27        8     2083  Maize_short_Chisinau_7May_NonOptimum_26_MOHC.PRM
 Tot(104)        7        5     2084    138.4    658.1   1564.7   429.00      0.0    134.8      3.6      2.9      0.0    106.5       40    250.8    195.5       68     0.000     0.000     0.000     0.000      103        0       42       25        6        9       25    10.702       44     37.6    4.022   -9.900     1.13    0.000    0.000       27        8     2084  Maize_short_Chisinau_7May_NonOptimum_26_MOHC.PRM
 Tot(105)        7        5     2085    121.4    613.1   1466.1   429.00      0.0    116.1      5.3     10.4      0.0    110.3       38    209.7    164.2       73     0.000     0.000     0.000     0.000       95        0       42       25        9       16       21     9.503       39     31.5    2.992   -9.900     0.94    0.000    0.000       27        8     2085  Maize_short_Chisinau_7May_NonOptimum_26_MOHC.PRM
 Tot(106)        7        5     2086     76.1    594.0   1402.3   428.00      0.0     76.1      0.0      0.0      0.0     82.1       30    211.8    166.1       72     0.000     0.000     0.000     0.000       98        0       42       25        9       14       21     9.961       41     34.1    3.395   -9.900     1.19    0.000    0.000       27        8     2086  Maize_short_Chisinau_7May_NonOptimum_26_MOHC.PRM
 Tot(107)        7        5     2087     84.8    717.6   1663.3   428.00      0.0     83.9      0.9      3.5      0.0     96.9       21    170.4    137.4       74     0.000     0.000     0.000     0.000       86        0       42       25        2       33       20     6.631       27     23.4    1.550   -9.900     0.62    0.000    0.000       27        8     2087  Maize_short_Chisinau_7May_NonOptimum_26_MOHC.PRM
 Tot(108)        7        5     2088    177.7    566.6   1398.0   427.00      0.0    167.0     10.7     28.0      0.0    113.3       49    231.4    180.8       75     0.000     0.000     0.000     0.000      101        0       42       25       12       10       20    11.134       46     37.1    4.125   -9.900     1.22    0.000    0.000       27        8     2088  Maize_short_Chisinau_7May_NonOptimum_26_MOHC.PRM
 Tot(109)        7        5     2089    152.5    605.5   1500.2   427.00      0.0    152.4      0.1      0.0      0.0    127.3       44    232.6    183.0       77     0.000     0.000     0.000     0.000      100        0       42       25        4       17       19    10.746       44     36.8    3.952   -9.900     1.11    0.000    0.000       27        8     2089  Maize_short_Chisinau_7May_NonOptimum_26_MOHC.PRM
 Tot(110)        7        5     2090    108.9    694.7   1637.5   426.00      0.0    108.6      0.3      0.0      0.0    110.7       28    200.0    159.1       74     0.000     0.000     0.000     0.000       92        0       42       25        4       26       20     8.203       33     28.9    2.368   -9.900     0.77    0.000    0.000       27        8     2090  Maize_short_Chisinau_7May_NonOptimum_26_MOHC.PRM
 Tot(111)        7        5     2091    100.3    590.9   1502.0   425.00      0.0    100.3      0.0      0.0      0.0     95.3       30    211.4    168.1       78     0.000     0.000     0.000     0.000      102        0       42       25        4       27       19    10.353       42     39.0    4.033   -9.900     1.33    0.000    0.000       27        8     2091  Maize_short_Chisinau_7May_NonOptimum_26_MOHC.PRM
 Tot(112)        7        5     2092    122.1    568.5   1369.4   425.00      0.0    118.2      3.9      5.5      0.0     95.9       43    243.9    190.1       75     0.000     0.000     0.000     0.000      107        0       42       25       14        9       20    12.456       52     38.6    4.805   -9.900     1.41    0.000    0.000       27        8     2092  Maize_short_Chisinau_7May_NonOptimum_26_MOHC.PRM
 Tot(113)        7        5     2093     72.7    661.5   1538.2   424.00      0.0     72.7      0.0      0.0      0.0     90.7       26    194.8    154.2       71     0.000     0.000     0.000     0.000       93        0       42       25        7       22       21     8.718       36     29.4    2.563   -9.900     0.91    0.000    0.000       27        8     2093  Maize_short_Chisinau_7May_NonOptimum_26_MOHC.PRM
 Tot(114)        7        5     2094    152.2    594.6   1406.0   424.00      0.0    123.2     29.0     37.4      0.0     98.9       35    200.8    158.0       74     0.000     0.000     0.000     0.000       94        0       42       25       12       19       20     9.369       39     30.9    2.894   -9.900     0.97    0.000    0.000       27        8     2094  Maize_short_Chisinau_7May_NonOptimum_26_MOHC.PRM
 Tot(115)        7        5     2095    119.1    641.7   1497.7   423.00      0.0    118.6      0.5      0.4      0.0     90.8       34    249.6    194.5       74     0.000     0.000     0.000     0.000      101        0       42       25       10        6       21    10.958       45     36.5    3.997   -9.900     1.18    0.000    0.000       27        8     2095  Maize_short_Chisinau_7May_NonOptimum_26_MOHC.PRM
 Tot(116)        7        5     2096     67.7    683.6   1608.9   423.00      0.0     67.7      0.0      0.0      0.0     92.5       21    174.0    140.6       75     0.000     0.000     0.000     0.000       90        0       42       25        2       33       19     7.081       29     27.1    1.918   -9.900     0.74    0.000    0.000       27        8     2096  Maize_short_Chisinau_7May_NonOptimum_26_MOHC.PRM
 Tot(117)        7        5     2097     93.5    610.9   1485.3   422.00      0.0     93.4      0.1      0.0      0.0     93.1       36    225.7    176.6       69     0.000     0.000     0.000     0.000      103        0       42       25        7       14       23    10.740       44     38.2    4.102   -9.900     1.29    0.000    0.000       27        8     2097  Maize_short_Chisinau_7May_NonOptimum_26_MOHC.PRM
 Tot(118)        7        5     2098     79.5    585.1   1278.7   422.00      0.0     79.2      0.3      1.0      0.0     80.4       30    216.0    171.5       71     0.000     0.000     0.000     0.000      107        0       42       25       14       26       22    10.184       42     39.9    4.060   -9.900     1.37    0.000    0.000       27        8     2098  Maize_short_Chisinau_7May_NonOptimum_26_MOHC.PRM
 Tot(119)        7        5     2099     51.2    764.9   1624.5   421.00      0.0     50.9      0.3      0.9      0.0     78.7       16    165.3    134.0       71     0.000     0.000     0.000     0.000       83        0       42       25       10       35       21     5.998       25     20.2    1.212   -9.900     0.50    0.000    0.000       27        8     2099  Maize_short_Chisinau_7May_NonOptimum_26_MOHC.PRM
