AquaCrop 7.0 (August 2022) - Output created on (date) : 24-11-2022   at (time) : 10:06:20

    RunNr     Day1   Month1    Year1     Rain      ETo       GD     CO2      Irri   Infilt   Runoff    Drain   Upflow        E     E/Ex       Tr      TrW   Tr/Trx    SaltIn   SaltOut    SaltUp  SaltProf     Cycle   SaltStr  FertStr  WeedStr  TempStr   ExpStr   StoStr  BioMass  Brelative   HI    Y(dry)  Y(fresh)    WPet      Bin     Bout     DayN   MonthN    YearN
                                           mm       mm  degC.day    ppm        mm       mm       mm       mm       mm       mm        %       mm       mm        %    ton/ha    ton/ha    ton/ha    ton/ha      days       %        %        %        %        %        %    ton/ha        %       %    ton/ha   ton/ha    kg/m3   ton/ha   ton/ha
   Tot(1)        7        5     1981    178.8    503.2   1241.2   340.11      0.0    170.0      8.8     19.7      0.0     88.2       42    267.5    266.0       89     0.000     0.000     0.000     0.000      107        0        0        0       11        5        8    18.291       83     39.7    7.262   -9.900     2.04    0.000    0.000       27        8     1981  Maize_short_Cahul_7May_Optimum_26_MOHC.PRM
   Tot(2)        7        5     1982    226.7    493.1   1253.0   341.22      0.0    226.0      0.7      0.0      0.0    101.4       45    280.6    279.1      100     0.000     0.000     0.000     0.000      107        0        0        0        8        3        0    21.083       95     40.0    8.440   -9.900     2.21    0.000    0.000       27        8     1982  Maize_short_Cahul_7May_Optimum_26_MOHC.PRM
   Tot(3)        7        5     1983    290.7    494.4   1282.6   342.84      0.0    264.2     26.5     26.7      0.0    101.9       47    287.3    287.1      100     0.000     0.000     0.000     0.000      107        0        0        0        6        3        0    21.239       96     40.1    8.514   -9.900     2.19    0.000    0.000       27        8     1983  Maize_short_Cahul_7May_Optimum_26_MOHC.PRM
   Tot(4)        7        5     1984    204.3    469.3   1125.8   344.40      0.0    202.8      1.5      3.1      0.0    133.4       69    263.3    265.5       97     0.000     0.000     0.000     0.000      107        0        0        0       13        2        2    19.791       94     40.1    7.931   -9.900     2.00    0.000    0.000       27        8     1984  Maize_short_Cahul_7May_Optimum_26_MOHC.PRM
   Tot(5)        7        5     1985    289.7    484.3   1225.0   345.87      0.0    263.2     26.5     42.7      0.0    114.2       55    279.7    277.6      100     0.000     0.000     0.000     0.000      107        0        0        0       10        1        0    20.626       97     40.0    8.250   -9.900     2.09    0.000    0.000       27        8     1985  Maize_short_Cahul_7May_Optimum_26_MOHC.PRM
   Tot(6)        7        5     1986    152.5    543.3   1305.4   347.19      0.0    151.8      0.7      0.0      0.0    106.4       45    261.7    264.2       84     0.000     0.000     0.000     0.000      107        0        0        0        5        8       11    17.511       79     39.6    6.933   -9.900     1.88    0.000    0.000       27        8     1986  Maize_short_Cahul_7May_Optimum_26_MOHC.PRM
   Tot(7)        7        5     1987    241.4    495.3   1193.7   348.98      0.0    233.0      8.4      0.0      0.0     96.8       50    305.7    303.2       99     0.000     0.000     0.000     0.000      107        0        0        0       13        4        1    20.812       95     40.1    8.345   -9.900     2.07    0.000    0.000       27        8     1987  Maize_short_Cahul_7May_Optimum_26_MOHC.PRM
   Tot(8)        7        5     1988    149.9    506.2   1303.3   351.45      0.0    148.7      1.2      3.3      0.0    130.7       64    236.1    239.3       80     0.000     0.000     0.000     0.000      107        0        0        0        8        8       18    15.447       68     39.2    6.055   -9.900     1.65    0.000    0.000       27        8     1988  Maize_short_Cahul_7May_Optimum_26_MOHC.PRM
   Tot(9)        7        5     1989    201.9    495.5   1205.1   352.89      0.0    201.5      0.4      0.0      0.0    102.1       51    296.7    295.1       97     0.000     0.000     0.000     0.000      107        0        0        0       13        4        2    20.756       93     40.2    8.345   -9.900     2.09    0.000    0.000       27        8     1989  Maize_short_Cahul_7May_Optimum_26_MOHC.PRM
  Tot(10)        7        5     1990    134.9    531.5   1218.0   354.16      0.0    134.6      0.3      0.0      0.0    122.0       53    234.0    235.4       79     0.000     0.000     0.000     0.000      107        0        0        0       13       13       17    15.179       67     39.8    6.046   -9.900     1.70    0.000    0.000       27        8     1990  Maize_short_Cahul_7May_Optimum_26_MOHC.PRM
  Tot(11)        7        5     1991    385.6    438.1   1229.6   355.48      0.0    339.7     45.9     69.7      0.0    119.1       77    296.0    293.8      100     0.000     0.000     0.000     0.000      107        0        0        0       15        0        0    22.432       98     40.0    8.978   -9.900     2.16    0.000    0.000       27        8     1991  Maize_short_Cahul_7May_Optimum_26_MOHC.PRM
  Tot(12)        7        5     1992    170.3    523.5   1259.8   356.27      0.0    170.0      0.3      0.0      0.0    127.8       64    262.4    264.1       81     0.000     0.000     0.000     0.000      107        0        0        0       14        6       14    17.117       75     39.2    6.705   -9.900     1.72    0.000    0.000       27        8     1992  Maize_short_Cahul_7May_Optimum_26_MOHC.PRM
  Tot(13)        7        5     1993    212.3    519.6   1215.6   356.95      0.0    200.6     11.7     23.7      0.0    126.2       61    265.1    263.8       86     0.000     0.000     0.000     0.000      107        0        0        0       10        6       10    17.552       81     39.7    6.964   -9.900     1.78    0.000    0.000       27        8     1993  Maize_short_Cahul_7May_Optimum_26_MOHC.PRM
  Tot(14)        7        5     1994    227.8    533.6   1328.9   358.63      0.0    212.2     15.6     35.4      0.0     99.1       42    269.6    270.9       87     0.000     0.000     0.000     0.000      107        0        0        0        8       11        9    17.628       77     39.7    6.999   -9.900     1.90    0.000    0.000       27        8     1994  Maize_short_Cahul_7May_Optimum_26_MOHC.PRM
  Tot(15)        7        5     1995    166.2    526.8   1338.7   360.62      0.0    162.9      3.3      3.5      0.0    105.2       47    265.1    265.0       85     0.000     0.000     0.000     0.000      107        0        0        0        7       10       13    17.334       74     39.7    6.879   -9.900     1.86    0.000    0.000       27        8     1995  Maize_short_Cahul_7May_Optimum_26_MOHC.PRM
  Tot(16)        7        5     1996    151.7    562.1   1315.4   362.37      0.0    142.1      9.6      0.0      0.0    116.4       36    182.9    183.8       79     0.000     0.000     0.000     0.000      107        0        0        0        7       26       16    10.998       49     40.3    4.431   -9.900     1.48    0.000    0.000       27        8     1996  Maize_short_Cahul_7May_Optimum_26_MOHC.PRM
  Tot(17)        7        5     1997    419.7    471.7   1250.0   363.47      0.0    375.1     44.6      0.3      0.0    121.8       59    281.7    281.1      100     0.000     0.000     0.000     0.000      107        0        0        0       10        2        0    22.136       97     40.0    8.862   -9.900     2.20    0.000    0.000       27        8     1997  Maize_short_Cahul_7May_Optimum_26_MOHC.PRM
  Tot(18)        7        5     1998    168.8    516.5   1294.8   366.50      0.0    167.9      0.9      2.6      0.0    120.0       61    269.0    269.2       84     0.000     0.000     0.000     0.000      107        0        0        0       12        4       13    17.668       78     39.4    6.964   -9.900     1.79    0.000    0.000       27        8     1998  Maize_short_Cahul_7May_Optimum_26_MOHC.PRM
  Tot(19)        7        5     1999    300.8    546.7   1379.6   368.14      0.0    283.6     17.2      0.0      0.0    112.6       50    332.5    330.4       98     0.000     0.000     0.000     0.000      107        0        0        0        7        4        2    21.754       92     40.1    8.727   -9.900     1.96    0.000    0.000       27        8     1999  Maize_short_Cahul_7May_Optimum_26_MOHC.PRM
  Tot(20)        7        5     2000     73.9    617.8   1328.9   369.41      0.0     73.9      0.0      0.0      0.0     81.9       24    209.2    211.7       77     0.000     0.000     0.000     0.000      106        0        0        0        7       24       20    12.543       55     39.6    4.962   -9.900     1.71    0.000    0.000       27        8     2000  Maize_short_Cahul_7May_Optimum_26_MOHC.PRM
  Tot(21)        7        5     2001    201.1    552.7   1318.6   371.07      0.0    172.7     28.4     17.8      0.0    115.8       52    262.1    261.9       80     0.000     0.000     0.000     0.000      107        0        0        0       10        3       17    16.754       72     39.0    6.535   -9.900     1.73    0.000    0.000       27        8     2001  Maize_short_Cahul_7May_Optimum_26_MOHC.PRM
  Tot(22)        7        5     2002    297.9    563.7   1394.2   373.16      0.0    259.4     38.5      0.0      0.0    114.6       42    288.9    286.7       92     0.000     0.000     0.000     0.000      107        0        0        0        5       24        4    18.851       80     40.8    7.698   -9.900     1.91    0.000    0.000       27        8     2002  Maize_short_Cahul_7May_Optimum_26_MOHC.PRM
  Tot(23)        7        5     2003    102.9    602.8   1413.4   375.80      0.0    102.9      0.0      0.0      0.0    101.7       29    219.7    222.0       82     0.000     0.000     0.000     0.000      107        0        0        0        3       26       16    14.151       60     40.1    5.672   -9.900     1.76    0.000    0.000       27        8     2003  Maize_short_Cahul_7May_Optimum_26_MOHC.PRM
  Tot(24)        7        5     2004    257.1    519.7   1224.3   377.49      0.0    253.2      3.9      0.0      0.0    135.8       63    301.4    299.1       95     0.000     0.000     0.000     0.000      107        0        0        0       12       13        3    20.544       89     40.4    8.295   -9.900     1.90    0.000    0.000       27        8     2004  Maize_short_Cahul_7May_Optimum_26_MOHC.PRM
  Tot(25)        7        5     2005    378.7    520.8   1288.0   379.80      0.0    361.0     17.7     10.1      0.0    144.1       69    326.2    325.2      100     0.000     0.000     0.000     0.000      107        0        0        0        8        3        0    22.626       97     40.1    9.071   -9.900     1.93    0.000    0.000       27        8     2005  Maize_short_Cahul_7May_Optimum_26_MOHC.PRM
  Tot(26)        7        5     2006    163.6    573.8   1322.8   381.90      0.0    155.9      7.7     15.6      0.0    122.3       46    230.5    233.3       76     0.000     0.000     0.000     0.000      107        0        0        0        7       19       18    14.128       60     39.9    5.635   -9.900     1.60    0.000    0.000       27        8     2006  Maize_short_Cahul_7May_Optimum_26_MOHC.PRM
  Tot(27)        7        5     2007    116.6    680.4   1503.0   383.77      0.0    115.3      1.3      0.0      0.0    111.5       28    210.4    210.6       75     0.000     0.000     0.000     0.000      107        0        0        0        1       28       19    10.964       46     40.1    4.393   -9.900     1.36    0.000    0.000       27        8     2007  Maize_short_Cahul_7May_Optimum_26_MOHC.PRM
  Tot(28)        7        5     2008    125.7    607.1   1356.8   385.59      0.0    125.7      0.0      0.0      0.0    100.0       36    250.4    250.7       77     0.000     0.000     0.000     0.000      107        0        0        0        4       20       19    14.861       62     39.6    5.888   -9.900     1.68    0.000    0.000       27        8     2008  Maize_short_Cahul_7May_Optimum_26_MOHC.PRM
  Tot(29)        7        5     2009    135.6    616.1   1391.5   387.37      0.0    135.0      0.6      0.0      0.0     91.0       31    264.7    264.8       82     0.000     0.000     0.000     0.000      107        0        0        0        5       12       17    15.562       65     39.5    6.144   -9.900     1.73    0.000    0.000       27        8     2009  Maize_short_Cahul_7May_Optimum_26_MOHC.PRM
  Tot(30)        7        5     2010    259.9    550.9   1434.7   389.85      0.0    241.6     18.3      0.8      0.0    128.8       57    321.2    319.6       94     0.000     0.000     0.000     0.000      107        0        0        0        7        2        5    21.119       90     39.9    8.432   -9.900     1.87    0.000    0.000       27        8     2010  Maize_short_Cahul_7May_Optimum_26_MOHC.PRM
  Tot(31)        7        5     2011    181.1    568.4   1367.2   391.63      0.0    176.8      4.3      2.4      0.0    123.9       52    273.1    274.0       82     0.000     0.000     0.000     0.000      107        0        0        0        4        6       13    17.670       76     39.7    7.011   -9.900     1.77    0.000    0.000       27        8     2011  Maize_short_Cahul_7May_Optimum_26_MOHC.PRM
  Tot(32)        7        5     2012    233.1    640.5   1478.9   393.82      0.0    227.4      5.7      5.3      0.0    161.6       56    262.1    261.1       75     0.000     0.000     0.000     0.000      107        0        0        0        5       18       20    14.463       60     39.6    5.722   -9.900     1.35    0.000    0.000       27        8     2012  Maize_short_Cahul_7May_Optimum_26_MOHC.PRM
  Tot(33)        7        5     2013    235.4    581.7   1439.0   396.48      0.0    222.9     12.5      0.0      0.0    123.0       50    300.1    300.6       85     0.000     0.000     0.000     0.000      107        0        0        0        3        6       11    19.124       79     39.4    7.534   -9.900     1.78    0.000    0.000       27        8     2013  Maize_short_Cahul_7May_Optimum_26_MOHC.PRM
  Tot(34)        7        5     2014    237.3    550.5   1373.2   398.55      0.0    233.6      3.7      5.5      0.0    144.3       67    295.7    293.8       86     0.000     0.000     0.000     0.000      107        0        0        0        5        7       10    19.257       81     39.8    7.665   -9.900     1.74    0.000    0.000       27        8     2014  Maize_short_Cahul_7May_Optimum_26_MOHC.PRM
  Tot(35)        7        5     2015    139.4    626.7   1394.8   401.00      0.0    138.0      1.4      0.0      0.0     98.5       32    250.1    252.4       78     0.000     0.000     0.000     0.000      107        0        0        0        5       12       14    14.883       63     39.4    5.859   -9.900     1.68    0.000    0.000       27        8     2015  Maize_short_Cahul_7May_Optimum_26_MOHC.PRM
  Tot(36)        7        5     2016    181.5    571.0   1373.9   403.00      0.0    180.8      0.7      0.3      0.0    147.1       66    254.4    254.7       74     0.000     0.000     0.000     0.000      107        0        0        0        8       11       21    15.238       64     39.3    5.986   -9.900     1.49    0.000    0.000       27        8     2016  Maize_short_Cahul_7May_Optimum_26_MOHC.PRM
  Tot(37)        7        5     2017    266.4    570.6   1365.8   405.00      0.0    238.1     28.3      0.0      0.0    103.1       46    341.9    340.7       94     0.000     0.000     0.000     0.000      107        0        0        0        7        5        5    21.436       90     40.1    8.598   -9.900     1.93    0.000    0.000       27        8     2017  Maize_short_Cahul_7May_Optimum_26_MOHC.PRM
  Tot(38)        7        5     2018    180.2    562.5   1480.2   408.00      0.0    173.9      6.3      1.1      0.0     97.7       37    290.0    290.6       91     0.000     0.000     0.000     0.000      107        0        0        0        3       10        6    20.260       84     40.1    8.117   -9.900     2.09    0.000    0.000       27        8     2018  Maize_short_Cahul_7May_Optimum_26_MOHC.PRM
  Tot(39)        7        5     2019    187.7    591.3   1433.5   410.00      0.0    186.5      1.2      1.0      0.0    157.7       62    253.3    254.2       76     0.000     0.000     0.000     0.000      107        0        0        0        3       15       19    15.720       65     39.4    6.200   -9.900     1.51    0.000    0.000       27        8     2019  Maize_short_Cahul_7May_Optimum_26_MOHC.PRM
  Tot(40)        7        5     2020     77.0    639.9   1417.6   412.00      0.0     74.7      2.3      2.5      0.0     98.4       30    187.4    187.8       70     0.000     0.000     0.000     0.000       92        0        0        0       13       22       21    10.600       44     28.4    3.011   -9.900     1.06    0.000    0.000       27        8     2020  Maize_short_Cahul_7May_Optimum_26_MOHC.PRM
  Tot(41)        7        5     2021     72.6    617.0   1421.0   414.00      0.0     66.2      6.4     10.1      0.0     85.8       26    179.1    179.1       71     0.000     0.000     0.000     0.000       91        0        0        0        9       25       21    10.184       42     27.6    2.814   -9.900     1.08    0.000    0.000       27        8     2021  Maize_short_Cahul_7May_Optimum_26_MOHC.PRM
  Tot(42)        7        5     2022     99.9    646.2   1532.6   417.00      0.0     98.4      1.5      1.5      0.0    113.6       33    198.8    198.8       73     0.000     0.000     0.000     0.000       95        0        0        0        4       21       20    11.764       48     31.8    3.745   -9.900     1.21    0.000    0.000       27        8     2022  Maize_short_Cahul_7May_Optimum_26_MOHC.PRM
  Tot(43)        7        5     2023     72.5    707.8   1599.7   419.00      0.0     72.0      0.5      0.3      0.0    102.9       23    173.1    173.1       73     0.000     0.000     0.000     0.000       89        0        0        0        2       29       20     9.254       38     25.8    2.385   -9.900     0.88    0.000    0.000       27        8     2023  Maize_short_Cahul_7May_Optimum_26_MOHC.PRM
  Tot(44)        7        5     2024    176.2    613.8   1485.8   421.00      0.0    161.1     15.1     12.6      0.0    101.0       40    273.7    273.6       78     0.000     0.000     0.000     0.000      107        0        0        0        3        6       18    16.518       68     38.7    6.396   -9.900     1.71    0.000    0.000       27        8     2024  Maize_short_Cahul_7May_Optimum_26_MOHC.PRM
  Tot(45)        7        5     2025     76.1    645.3   1396.0   423.00      0.0     73.7      2.4      3.7      0.0     86.5       22    163.2    163.3       72     0.000     0.000     0.000     0.000       86        0        0        0       11       32       21     8.418       35     22.8    1.916   -9.900     0.85    0.000    0.000       27        8     2025  Maize_short_Cahul_7May_Optimum_26_MOHC.PRM
  Tot(46)        7        5     2026     86.3    701.0   1534.2   424.00      0.0     86.1      0.2      0.0      0.0    109.9       27    189.9    189.9       72     0.000     0.000     0.000     0.000       92        0        0        0        7       26       21    10.480       43     28.5    2.990   -9.900     1.01    0.000    0.000       27        8     2026  Maize_short_Cahul_7May_Optimum_26_MOHC.PRM
  Tot(47)        7        5     2027    100.1    661.0   1490.1   426.00      0.0     98.5      1.6      5.5      0.0    102.8       31    206.3    206.3       70     0.000     0.000     0.000     0.000       93        0        0        0        9       20       22    11.094       45     29.1    3.233   -9.900     1.06    0.000    0.000       27        8     2027  Maize_short_Cahul_7May_Optimum_26_MOHC.PRM
  Tot(48)        7        5     2028     93.5    684.1   1496.5   428.00      0.0     91.9      1.6      3.4      0.0    111.8       29    179.0    179.0       69     0.000     0.000     0.000     0.000       85        0        0        0        9       29       22     8.747       36     21.5    1.880   -9.900     0.67    0.000    0.000       27        8     2028  Maize_short_Cahul_7May_Optimum_26_MOHC.PRM
  Tot(49)        7        5     2029    170.0    605.5   1482.8   429.00      0.0    156.1     13.9     25.8      0.0    128.7       49    226.1    226.1       73     0.000     0.000     0.000     0.000      100        0        0        0        7       10       22    13.832       57     35.6    4.919   -9.900     1.39    0.000    0.000       27        8     2029  Maize_short_Cahul_7May_Optimum_26_MOHC.PRM
  Tot(50)        7        5     2030    139.7    725.5   1625.7   431.00      0.0    125.6     14.1      0.0      0.0     93.5       29    259.1    259.1       67     0.000     0.000     0.000     0.000      103        0        0        0        4       10       25    13.245       54     30.6    4.057   -9.900     1.16    0.000    0.000       27        8     2030  Maize_short_Cahul_7May_Optimum_26_MOHC.PRM
  Tot(51)        7        5     2031    107.8    621.9   1484.3   432.00      0.0    106.5      1.3      0.0      0.0    114.2       36    207.9    207.9       74     0.000     0.000     0.000     0.000       97        0        0        0        6       20       21    12.568       51     33.3    4.185   -9.900     1.33    0.000    0.000       27        8     2031  Maize_short_Cahul_7May_Optimum_26_MOHC.PRM
  Tot(52)        7        5     2032     29.7    749.4   1668.6   433.00      0.0     29.6      0.1      0.0      0.0     68.9       14    160.2    160.2       71     0.000     0.000     0.000     0.000       86        0        0        0        1       34       20     7.752       31     21.5    1.663   -9.900     0.74    0.000    0.000       27        8     2032  Maize_short_Cahul_7May_Optimum_26_MOHC.PRM
  Tot(53)        7        5     2033    103.9    694.7   1606.0   435.00      0.0    103.8      0.1      0.0      0.0    111.9       31    208.0    208.0       70     0.000     0.000     0.000     0.000       93        0        0        0        2       20       22    11.168       46     29.2    3.261   -9.900     1.05    0.000    0.000       27        8     2033  Maize_short_Cahul_7May_Optimum_26_MOHC.PRM
  Tot(54)        7        5     2034     89.2    606.6   1423.0   436.00      0.0     89.2      0.0      0.0      0.0     99.0       31    207.3    207.3       77     0.000     0.000     0.000     0.000       98        0        0        0        8       23       19    12.455       51     34.7    4.318   -9.900     1.42    0.000    0.000       27        8     2034  Maize_short_Cahul_7May_Optimum_26_MOHC.PRM
  Tot(55)        7        5     2035     94.7    635.0   1511.5   437.00      0.0     94.5      0.2      0.0      0.0    102.3       32    210.3    210.3       73     0.000     0.000     0.000     0.000       96        0        0        0        3       18       21    12.026       49     32.3    3.888   -9.900     1.26    0.000    0.000       27        8     2035  Maize_short_Cahul_7May_Optimum_26_MOHC.PRM
  Tot(56)        7        5     2036     93.3    658.5   1505.2   438.00      0.0     93.3      0.0      0.0      0.0    102.2       30    200.8    200.8       71     0.000     0.000     0.000     0.000       94        0        0        0        5       18       21    11.470       47     30.5    3.493   -9.900     1.20    0.000    0.000       27        8     2036  Maize_short_Cahul_7May_Optimum_26_MOHC.PRM
  Tot(57)        7        5     2037     62.6    649.5   1518.7   438.00      0.0     62.6      0.0      0.0      0.0     89.6       26    182.5    182.5       70     0.000     0.000     0.000     0.000       89        0        0        0        7       25       22    10.006       41     25.5    2.548   -9.900     0.95    0.000    0.000       27        8     2037  Maize_short_Cahul_7May_Optimum_26_MOHC.PRM
  Tot(58)        7        5     2038    125.0    568.1   1376.3   439.00      0.0    123.0      2.0      0.2      0.0    123.9       52    223.5    223.5       75     0.000     0.000     0.000     0.000      103        0        0        0        9        7       21    14.633       60     38.4    5.622   -9.900     1.62    0.000    0.000       27        8     2038  Maize_short_Cahul_7May_Optimum_26_MOHC.PRM
  Tot(59)        7        5     2039     68.5    685.7   1545.8   440.00      0.0     67.4      1.1      1.0      0.0     96.6       24    172.9    172.9       70     0.000     0.000     0.000     0.000       87        0        0        0        4       28       21     9.206       37     23.6    2.171   -9.900     0.82    0.000    0.000       27        8     2039  Maize_short_Cahul_7May_Optimum_26_MOHC.PRM
  Tot(60)        7        5     2040     55.1    665.6   1461.3   440.00      0.0     54.8      0.3      0.0      0.0     64.7       17    189.4    189.4       71     0.000     0.000     0.000     0.000      107        0        0        0        5       34       24    10.255       42     39.7    4.068   -9.900     1.60    0.000    0.000       27        8     2040  Maize_short_Cahul_7May_Optimum_26_MOHC.PRM
  Tot(61)        7        5     2041    118.3    659.8   1468.6   441.00      0.0    116.1      2.2      4.1      0.0    122.2       38    206.2    206.2       71     0.000     0.000     0.000     0.000       92        0        0        0       11       21       22    11.102       45     28.3    3.147   -9.900     0.97    0.000    0.000       27        8     2041  Maize_short_Cahul_7May_Optimum_26_MOHC.PRM
  Tot(62)        7        5     2042     75.8    573.8   1373.6   441.00      0.0     75.7      0.1      0.3      0.0     94.3       34    201.3    201.3       73     0.000     0.000     0.000     0.000      101        0        0        0        8       24       22    12.368       51     37.4    4.627   -9.900     1.58    0.000    0.000       27        8     2042  Maize_short_Cahul_7May_Optimum_26_MOHC.PRM
  Tot(63)        7        5     2043     51.6    700.4   1594.8   441.00      0.0     51.6      0.0      0.0      0.0     82.1       20    180.4    180.4       70     0.000     0.000     0.000     0.000       90        0        0        0        3       26       21    10.000       41     26.8    2.685   -9.900     1.04    0.000    0.000       27        8     2043  Maize_short_Cahul_7May_Optimum_26_MOHC.PRM
  Tot(64)        7        5     2044    191.1    564.9   1387.3   442.00      0.0    184.0      7.1     18.3      0.0    127.4       60    263.5    263.5       79     0.000     0.000     0.000     0.000      107        0        0        0       10        6       20    16.329       66     38.8    6.343   -9.900     1.62    0.000    0.000       27        8     2044  Maize_short_Cahul_7May_Optimum_26_MOHC.PRM
  Tot(65)        7        5     2045    182.9    653.1   1512.1   442.00      0.0    159.0     23.9     30.5      0.0    142.2       43    200.7    200.7       71     0.000     0.000     0.000     0.000       93        0        0        0        2       21       22    11.511       47     29.2    3.364   -9.900     1.02    0.000    0.000       27        8     2045  Maize_short_Cahul_7May_Optimum_26_MOHC.PRM
  Tot(66)        7        5     2046     75.9    750.0   1703.4   442.00      0.0     75.1      0.8      1.0      0.0    104.7       22    166.6    166.6       70     0.000     0.000     0.000     0.000       84        0        0        0        3       33       21     7.890       32     15.7    1.239   -9.900     0.47    0.000    0.000       27        8     2046  Maize_short_Cahul_7May_Optimum_26_MOHC.PRM
  Tot(67)        7        5     2047     84.8    632.9   1550.7   442.00      0.0     84.2      0.6      0.9      0.0    110.7       33    183.6    183.6       72     0.000     0.000     0.000     0.000       92        0        0        0        7       25       21    10.847       44     28.5    3.095   -9.900     1.06    0.000    0.000       27        8     2047  Maize_short_Cahul_7May_Optimum_26_MOHC.PRM
  Tot(68)        7        5     2048    278.8    593.2   1436.9   442.00      0.0    188.1     90.7     19.0      0.0     96.2       42    298.2    297.8       82     0.000     0.000     0.000     0.000      107        0        0        0        6        5       15    17.975       74     39.2    7.039   -9.900     1.78    0.000    0.000       27        8     2048  Maize_short_Cahul_7May_Optimum_26_MOHC.PRM
  Tot(69)        7        5     2049     72.0    627.9   1567.7   443.00      0.0     72.0      0.0      0.0      0.0     96.3       27    188.9    189.3       74     0.000     0.000     0.000     0.000       94        0        0        0        3       23       20    11.123       45     30.9    3.440   -9.900     1.24    0.000    0.000       27        8     2049  Maize_short_Cahul_7May_Optimum_26_MOHC.PRM
  Tot(70)        7        5     2050     56.1    646.4   1501.3   443.00      0.0     56.1      0.0      0.0      0.0     84.2       23    175.5    175.5       70     0.000     0.000     0.000     0.000       89        0        0        0        8       27       21     9.827       40     26.0    2.553   -9.900     1.01    0.000    0.000       27        8     2050  Maize_short_Cahul_7May_Optimum_26_MOHC.PRM
  Tot(71)        7        5     2051     85.0    651.3   1527.9   443.00      0.0     84.9      0.1      0.0      0.0     98.7       30    202.9    202.9       72     0.000     0.000     0.000     0.000       94        0        0        0        8       19       21    11.403       47     30.4    3.462   -9.900     1.17    0.000    0.000       27        8     2051  Maize_short_Cahul_7May_Optimum_26_MOHC.PRM
  Tot(72)        7        5     2052    132.4    628.4   1537.1   443.00      0.0    123.0      9.4     18.3      0.0     96.9       32    228.7    228.7       75     0.000     0.000     0.000     0.000      100        0        0        0        5       21       21    13.108       53     36.4    4.773   -9.900     1.47    0.000    0.000       27        8     2052  Maize_short_Cahul_7May_Optimum_26_MOHC.PRM
  Tot(73)        7        5     2053     80.3    684.2   1606.5   443.00      0.0     80.3      0.0      0.0      0.0     93.7       25    201.7    201.7       73     0.000     0.000     0.000     0.000       93        0        0        0        3       23       21    10.890       44     29.5    3.208   -9.900     1.11    0.000    0.000       27        8     2053  Maize_short_Cahul_7May_Optimum_26_MOHC.PRM
  Tot(74)        7        5     2054    178.9    639.8   1541.0   443.00      0.0    171.6      7.3      1.3      0.0    126.7       45    268.0    268.0       78     0.000     0.000     0.000     0.000      105        0        0        0        2        9       20    15.276       62     38.8    5.934   -9.900     1.51    0.000    0.000       27        8     2054  Maize_short_Cahul_7May_Optimum_26_MOHC.PRM
  Tot(75)        7        5     2055    118.1    667.2   1533.0   443.00      0.0    107.0     11.1     33.3      0.0     95.9       25    177.3    177.3       72     0.000     0.000     0.000     0.000       87        0        0        0        8       30       21     8.980       36     23.8    2.134   -9.900     0.79    0.000    0.000       27        8     2055  Maize_short_Cahul_7May_Optimum_26_MOHC.PRM
  Tot(76)        7        5     2056    121.3    684.5   1558.9   442.00      0.0    120.3      1.0      2.3      0.0    118.2       34    219.1    219.1       73     0.000     0.000     0.000     0.000       95        0        0        0        3       18       21    12.134       49     31.5    3.821   -9.900     1.16    0.000    0.000       27        8     2056  Maize_short_Cahul_7May_Optimum_26_MOHC.PRM
  Tot(77)        7        5     2057    124.5    648.1   1539.9   442.00      0.0    123.7      0.8      0.0      0.0     96.6       33    252.4    252.4       76     0.000     0.000     0.000     0.000      104        0        0        0        7        7       21    14.984       61     38.3    5.742   -9.900     1.65    0.000    0.000       27        8     2057  Maize_short_Cahul_7May_Optimum_26_MOHC.PRM
  Tot(78)        7        5     2058     59.7    649.3   1540.2   442.00      0.0     59.1      0.6      0.0      0.0     81.1       22    188.3    188.3       75     0.000     0.000     0.000     0.000       92        0        0        0        8       28       19    10.381       42     29.2    3.033   -9.900     1.14    0.000    0.000       27        8     2058  Maize_short_Cahul_7May_Optimum_26_MOHC.PRM
  Tot(79)        7        5     2059     73.9    661.0   1514.7   442.00      0.0     73.8      0.1      0.0      0.0     92.4       26    200.8    200.8       71     0.000     0.000     0.000     0.000      103        0        0        0        7       31       24    11.115       45     39.2    4.362   -9.900     1.49    0.000    0.000       27        8     2059  Maize_short_Cahul_7May_Optimum_26_MOHC.PRM
  Tot(80)        7        5     2060     87.6    586.2   1417.8   442.00      0.0     86.0      1.6      2.9      0.0     99.8       36    201.8    201.8       73     0.000     0.000     0.000     0.000       96        0        0        0       11       18       21    12.502       51     32.5    4.064   -9.900     1.36    0.000    0.000       27        8     2060  Maize_short_Cahul_7May_Optimum_26_MOHC.PRM
  Tot(81)        7        5     2061     50.1    653.4   1550.5   441.00      0.0     50.1      0.0      0.0      0.0     83.4       22    174.9    174.9       71     0.000     0.000     0.000     0.000       90        0        0        0        6       27       20     9.955       40     27.0    2.685   -9.900     1.07    0.000    0.000       27        8     2061  Maize_short_Cahul_7May_Optimum_26_MOHC.PRM
  Tot(82)        7        5     2062     79.5    656.7   1516.6   441.00      0.0     79.5      0.0      0.0      0.0    103.0       26    175.3    175.3       74     0.000     0.000     0.000     0.000       92        0        0        0        5       31       19     9.617       39     29.0    2.789   -9.900     1.06    0.000    0.000       27        8     2062  Maize_short_Cahul_7May_Optimum_26_MOHC.PRM
  Tot(83)        7        5     2063    157.5    628.2   1518.5   441.00      0.0    149.6      7.9     11.9      0.0    129.7       41    193.7    193.7       71     0.000     0.000     0.000     0.000       92        0        0        0        8       21       22    11.093       45     28.4    3.150   -9.900     1.01    0.000    0.000       27        8     2063  Maize_short_Cahul_7May_Optimum_26_MOHC.PRM
  Tot(84)        7        5     2064    145.3    630.3   1538.1   440.00      0.0    133.7     11.6     22.8      0.0    122.4       39    195.0    195.0       71     0.000     0.000     0.000     0.000       92        0        0        0        4       21       22    11.295       46     28.3    3.200   -9.900     1.04    0.000    0.000       27        8     2064  Maize_short_Cahul_7May_Optimum_26_MOHC.PRM
  Tot(85)        7        5     2065     57.9    740.8   1610.3   440.00      0.0     57.6      0.3      0.0      0.0     92.1       19    160.9    160.9       69     0.000     0.000     0.000     0.000       83        0        0        0        2       34       21     7.479       30     20.2    1.507   -9.900     0.61    0.000    0.000       27        8     2065  Maize_short_Cahul_7May_Optimum_26_MOHC.PRM
  Tot(86)        7        5     2066    283.4    596.4   1435.6   440.00      0.0    211.7     71.7      2.8      0.0    139.3       46    197.8    197.8       74     0.000     0.000     0.000     0.000       91        0        0        0        7       25       20    11.070       46     28.1    3.107   -9.900     0.98    0.000    0.000       27        8     2066  Maize_short_Cahul_7May_Optimum_26_MOHC.PRM
  Tot(87)        7        5     2067     83.1    641.7   1480.4   439.00      0.0     82.3      0.8      0.0      0.0     79.9       23    204.6    203.9       73     0.000     0.000     0.000     0.000      107        0        0        0        4       32       19    11.342       46     40.2    4.563   -9.900     1.60    0.000    0.000       27        8     2067  Maize_short_Cahul_7May_Optimum_26_MOHC.PRM
  Tot(88)        7        5     2068    235.1    543.6   1347.6   439.00      0.0    216.8     18.3     25.4      0.0    100.4       49    286.3    284.9       84     0.000     0.000     0.000     0.000      107        0        0        0       10        3       11    18.716       77     39.4    7.368   -9.900     1.91    0.000    0.000       27        8     2068  Maize_short_Cahul_7May_Optimum_26_MOHC.PRM
  Tot(89)        7        5     2069    111.8    564.8   1406.9   438.00      0.0    110.6      1.2      3.5      0.0    104.3       43    224.0    226.1       76     0.000     0.000     0.000     0.000      100        0        0        0       10       13       20    13.926       57     36.2    5.047   -9.900     1.54    0.000    0.000       27        8     2069  Maize_short_Cahul_7May_Optimum_26_MOHC.PRM
  Tot(90)        7        5     2070     71.6    594.8   1438.6   437.00      0.0     63.4      8.2     23.5      0.0     70.4       23    178.4    178.4       71     0.000     0.000     0.000     0.000       91        0        0        0        9       24       21    10.531       43     27.6    2.908   -9.900     1.19    0.000    0.000       27        8     2070  Maize_short_Cahul_7May_Optimum_26_MOHC.PRM
  Tot(91)        7        5     2071    247.8    574.3   1408.6   437.00      0.0    224.1     23.7      4.0      0.0    128.2       52    244.2    242.5       75     0.000     0.000     0.000     0.000      107        0        0        0        7       14       18    15.413       64     39.5    6.081   -9.900     1.63    0.000    0.000       27        8     2071  Maize_short_Cahul_7May_Optimum_26_MOHC.PRM
  Tot(92)        7        5     2072    100.6    583.1   1378.1   436.00      0.0     99.0      1.6      2.0      0.0    113.0       39    197.3    199.0       76     0.000     0.000     0.000     0.000       96        0        0        0        9       20       20    12.108       49     32.9    3.984   -9.900     1.29    0.000    0.000       27        8     2072  Maize_short_Cahul_7May_Optimum_26_MOHC.PRM
  Tot(93)        7        5     2073     54.4    688.6   1610.5   436.00      0.0     54.4      0.0      0.0      0.0     88.3       20    162.7    162.7       72     0.000     0.000     0.000     0.000       86        0        0        0        1       32       20     8.288       34     22.9    1.896   -9.900     0.76    0.000    0.000       27        8     2073  Maize_short_Cahul_7May_Optimum_26_MOHC.PRM
  Tot(94)        7        5     2074    100.9    627.8   1394.9   435.00      0.0    100.8      0.1      0.0      0.0     95.6       32    227.1    227.1       75     0.000     0.000     0.000     0.000      101        0        0        0       11       14       20    13.471       55     37.2    5.008   -9.900     1.57    0.000    0.000       27        8     2074  Maize_short_Cahul_7May_Optimum_26_MOHC.PRM
  Tot(95)        7        5     2075    115.2    579.1   1449.8   435.00      0.0    115.0      0.2      0.0      0.0    130.4       49    202.3    202.3       71     0.000     0.000     0.000     0.000       99        0        0        0        7       14       22    13.100       54     34.9    4.572   -9.900     1.40    0.000    0.000       27        8     2075  Maize_short_Cahul_7May_Optimum_26_MOHC.PRM
  Tot(96)        7        5     2076     80.4    710.1   1616.9   434.00      0.0     79.6      0.8      0.0      0.0    101.9       26    188.9    188.9       69     0.000     0.000     0.000     0.000       89        0        0        0        4       25       22     9.936       40     25.3    2.513   -9.900     0.88    0.000    0.000       27        8     2076  Maize_short_Cahul_7May_Optimum_26_MOHC.PRM
  Tot(97)        7        5     2077     75.0    695.3   1499.7   433.00      0.0     75.0      0.0      0.0      0.0    103.7       26    177.7    177.7       70     0.000     0.000     0.000     0.000       87        0        0        0        4       28       21     9.235       38     24.0    2.214   -9.900     0.80    0.000    0.000       27        8     2077  Maize_short_Cahul_7May_Optimum_26_MOHC.PRM
  Tot(98)        7        5     2078    173.0    608.5   1533.4   433.00      0.0    170.6      2.4      2.4      0.0    148.4       55    242.7    242.7       77     0.000     0.000     0.000     0.000      102        0        0        0        3       12       21    14.605       59     38.0    5.553   -9.900     1.43    0.000    0.000       27        8     2078  Maize_short_Cahul_7May_Optimum_26_MOHC.PRM
  Tot(99)        7        5     2079    110.6    649.6   1510.4   432.00      0.0    108.3      2.3      0.0      0.0    101.5       29    199.2    199.2       71     0.000     0.000     0.000     0.000       95        0        0        0        6       21       21    11.442       47     31.2    3.574   -9.900     1.27    0.000    0.000       27        8     2079  Maize_short_Cahul_7May_Optimum_26_MOHC.PRM
 Tot(100)        7        5     2080     91.2    647.6   1472.1   432.00      0.0     90.4      0.8      1.4      0.0    107.5       33    197.2    197.2       70     0.000     0.000     0.000     0.000       92        0        0        0        8       23       22    11.051       45     28.3    3.126   -9.900     1.04    0.000    0.000       27        8     2080  Maize_short_Cahul_7May_Optimum_26_MOHC.PRM
 Tot(101)        7        5     2081     86.5    697.0   1630.8   431.00      0.0     86.4      0.1      0.0      0.0    110.1       26    176.5    176.5       71     0.000     0.000     0.000     0.000      107        0        0        0        2       29       36     9.145       37     24.0    2.195   -9.900     0.77    0.000    0.000       27        8     2081  Maize_short_Cahul_7May_Optimum_26_MOHC.PRM
 Tot(102)        7        5     2082     81.7    700.4   1585.6   431.00      0.0     78.8      2.9     10.7      0.0    100.9       24    166.9    166.9       70     0.000     0.000     0.000     0.000       85        0        0        0        4       31       21     8.494       35     22.1    1.878   -9.900     0.73    0.000    0.000       27        8     2082  Maize_short_Cahul_7May_Optimum_26_MOHC.PRM
 Tot(103)        7        5     2083     96.6    683.5   1578.0   430.00      0.0     96.2      0.4      0.0      0.0    108.3       26    174.5    174.5       70     0.000     0.000     0.000     0.000       87        0        0        0        3       29       21     8.830       36     24.0    2.121   -9.900     0.84    0.000    0.000       27        8     2083  Maize_short_Cahul_7May_Optimum_26_MOHC.PRM
 Tot(104)        7        5     2084    103.2    669.1   1560.3   429.00      0.0    102.9      0.3      0.0      0.0     96.4       31    228.7    228.7       71     0.000     0.000     0.000     0.000       96        0        0        0        6       16       22    12.406       50     31.9    3.963   -9.900     1.23    0.000    0.000       27        8     2084  Maize_short_Cahul_7May_Optimum_26_MOHC.PRM
 Tot(105)        7        5     2085     75.7    592.7   1448.1   429.00      0.0     73.5      2.2      4.9      0.0     93.6       31    188.9    188.9       72     0.000     0.000     0.000     0.000       94        0        0        0        8       20       21    11.485       47     30.6    3.512   -9.900     1.27    0.000    0.000       27        8     2085  Maize_short_Cahul_7May_Optimum_26_MOHC.PRM
 Tot(106)        7        5     2086    137.0    584.2   1375.0   428.00      0.0    122.4     14.6     20.6      0.0    103.9       40    219.0    219.0       73     0.000     0.000     0.000     0.000       99        0        0        0       10       11       21    13.211       54     34.9    4.616   -9.900     1.46    0.000    0.000       27        8     2086  Maize_short_Cahul_7May_Optimum_26_MOHC.PRM
 Tot(107)        7        5     2087    119.3    697.2   1615.8   428.00      0.0    111.6      7.7      8.8      0.0    111.9       26    168.5    168.5       72     0.000     0.000     0.000     0.000      107        0        0        0        3       32       38     8.153       33     21.3    1.735   -9.900     0.62    0.000    0.000       27        8     2087  Maize_short_Cahul_7May_Optimum_26_MOHC.PRM
 Tot(108)        7        5     2088     93.8    600.7   1425.1   427.00      0.0     92.0      1.8      6.6      0.0    103.1       34    187.3    187.3       71     0.000     0.000     0.000     0.000       92        0        0        0       13       22       21    11.226       46     28.8    3.230   -9.900     1.17    0.000    0.000       27        8     2088  Maize_short_Cahul_7May_Optimum_26_MOHC.PRM
 Tot(109)        7        5     2089    154.0    598.8   1521.1   427.00      0.0    153.2      0.8      0.0      0.0    141.3       47    220.9    220.9       77     0.000     0.000     0.000     0.000      102        0        0        0        4       24       20    13.187       54     38.8    5.111   -9.900     1.46    0.000    0.000       27        8     2089  Maize_short_Cahul_7May_Optimum_26_MOHC.PRM
 Tot(110)        7        5     2090     65.9    662.0   1589.0   426.00      0.0     65.9      0.0      0.0      0.0     92.1       24    182.4    182.4       74     0.000     0.000     0.000     0.000       91        0        0        0        4       27       20    10.040       41     27.8    2.792   -9.900     1.03    0.000    0.000       27        8     2090  Maize_short_Cahul_7May_Optimum_26_MOHC.PRM
 Tot(111)        7        5     2091    137.2    598.8   1505.9   425.00      0.0    136.2      1.0      0.0      0.0    112.0       41    233.4    231.8       73     0.000     0.000     0.000     0.000      107        0        0        0        5       25       20    14.120       58     39.7    5.600   -9.900     1.62    0.000    0.000       27        8     2091  Maize_short_Cahul_7May_Optimum_26_MOHC.PRM
 Tot(112)        7        5     2092     92.0    569.7   1392.5   425.00      0.0     92.0      0.0      0.0      0.0     92.0       37    225.5    227.1       75     0.000     0.000     0.000     0.000      105        0        0        0       13       13       20    14.788       61     38.7    5.724   -9.900     1.81    0.000    0.000       27        8     2092  Maize_short_Cahul_7May_Optimum_26_MOHC.PRM
 Tot(113)        7        5     2093     75.2    636.2   1500.2   424.00      0.0     75.1      0.1      0.0      0.0     90.0       28    202.6    202.6       72     0.000     0.000     0.000     0.000       94        0        0        0        6       20       21    11.571       47     30.4    3.515   -9.900     1.21    0.000    0.000       27        8     2093  Maize_short_Cahul_7May_Optimum_26_MOHC.PRM
 Tot(114)        7        5     2094    167.3    561.8   1389.4   424.00      0.0    126.0     41.3     43.0      0.0    104.4       38    191.5    191.5       75     0.000     0.000     0.000     0.000       93        0        0        0       11       21       20    11.449       47     30.0    3.439   -9.900     1.18    0.000    0.000       27        8     2094  Maize_short_Cahul_7May_Optimum_26_MOHC.PRM
 Tot(115)        7        5     2095    142.2    594.0   1427.9   423.00      0.0    141.3      0.9      0.0      0.0    103.2       46    263.8    263.8       76     0.000     0.000     0.000     0.000      107        0        0        0       10        3       21    15.719       65     38.3    6.028   -9.900     1.64    0.000    0.000       27        8     2095  Maize_short_Cahul_7May_Optimum_26_MOHC.PRM
 Tot(116)        7        5     2096     51.4    710.6   1619.4   423.00      0.0     51.4      0.0      0.0      0.0     87.2       18    163.8    163.8       74     0.000     0.000     0.000     0.000       89        0        0        0        2       35       19     8.010       33     26.0    2.085   -9.900     0.85    0.000    0.000       27        8     2096  Maize_short_Cahul_7May_Optimum_26_MOHC.PRM
 Tot(117)        7        5     2097     75.1    624.4   1501.4   422.00      0.0     75.0      0.1      0.0      0.0     95.6       31    200.8    200.8       71     0.000     0.000     0.000     0.000       96        0        0        0        6       18       22    12.224       50     32.0    3.913   -9.900     1.33    0.000    0.000       27        8     2097  Maize_short_Cahul_7May_Optimum_26_MOHC.PRM
 Tot(118)        7        5     2098     80.6    588.2   1295.1   422.00      0.0     78.0      2.6      9.0      0.0     75.3       27    209.1    208.7       71     0.000     0.000     0.000     0.000      107        0        0        0       13       27       22    12.337       51     39.9    4.925   -9.900     1.73    0.000    0.000       27        8     2098  Maize_short_Cahul_7May_Optimum_26_MOHC.PRM
 Tot(119)        7        5     2099     71.5    742.9   1602.9   421.00      0.0     65.6      5.9     13.8      0.0     84.6       18    169.1    169.4       68     0.000     0.000     0.000     0.000       85        0        0        0        9       32       22     7.966       33     21.5    1.710   -9.900     0.68    0.000    0.000       27        8     2099  Maize_short_Cahul_7May_Optimum_26_MOHC.PRM
