AquaCrop 7.0 (August 2022) - Output created on (date) : 23-11-2022   at (time) : 13:21:32

    RunNr     Day1   Month1    Year1     Rain      ETo       GD     CO2      Irri   Infilt   Runoff    Drain   Upflow        E     E/Ex       Tr      TrW   Tr/Trx    SaltIn   SaltOut    SaltUp  SaltProf     Cycle   SaltStr  FertStr  WeedStr  TempStr   ExpStr   StoStr  BioMass  Brelative   HI    Y(dry)  Y(fresh)    WPet      Bin     Bout     DayN   MonthN    YearN
                                           mm       mm  degC.day    ppm        mm       mm       mm       mm       mm       mm        %       mm       mm        %    ton/ha    ton/ha    ton/ha    ton/ha      days       %        %        %        %        %        %    ton/ha        %       %    ton/ha   ton/ha    kg/m3   ton/ha   ton/ha
   Tot(1)       22        5     1981    112.7    489.0   1247.8   340.11      0.0    112.6      0.1      0.0      0.0     77.0       34    238.7    237.7       91     0.000     0.000     0.000     0.000      107        0        0        0       11        7        7    17.433       84     40.3    7.018   -9.900     2.22    0.000    0.000       11        9     1981  Maize_short_Chisinau_22May_Optimum_85_MPI.PRM
   Tot(2)       22        5     1982    204.3    456.0   1247.6   341.22      0.0    204.0      0.3      0.0      0.0    113.7       55    257.4    256.0      100     0.000     0.000     0.000     0.000      107        0        0        0        9        2        0    21.170       96     40.0    8.475   -9.900     2.28    0.000    0.000       11        9     1982  Maize_short_Chisinau_22May_Optimum_85_MPI.PRM
   Tot(3)       22        5     1983    263.2    457.8   1241.5   342.84      0.0    246.8     16.4     28.6      0.0    125.5       63    258.5    258.0      100     0.000     0.000     0.000     0.000      107        0        0        0       10        3        0    20.629       97     40.1    8.273   -9.900     2.15    0.000    0.000       11        9     1983  Maize_short_Chisinau_22May_Optimum_85_MPI.PRM
   Tot(4)       22        5     1984    214.8    437.7   1110.3   344.40      0.0    211.4      3.4      5.3      0.0    144.1       77    242.9    244.2      100     0.000     0.000     0.000     0.000      107        0        0        0       15        1        0    20.187       97     40.0    8.084   -9.900     2.09    0.000    0.000       11        9     1984  Maize_short_Chisinau_22May_Optimum_85_MPI.PRM
   Tot(5)       22        5     1985    293.3    457.2   1166.1   345.87      0.0    263.7     29.6     63.9      0.0    122.0       66    263.0    263.4       97     0.000     0.000     0.000     0.000      107        0        0        0       15        2        2    19.571       94     40.1    7.846   -9.900     2.04    0.000    0.000       11        9     1985  Maize_short_Chisinau_22May_Optimum_85_MPI.PRM
   Tot(6)       22        5     1986    182.0    520.8   1291.5   347.19      0.0    181.3      0.7      0.0      0.0    116.4       50    270.7    270.6       93     0.000     0.000     0.000     0.000      107        0        0        0        9        5        6    18.952       89     40.1    7.598   -9.900     1.96    0.000    0.000       11        9     1986  Maize_short_Chisinau_22May_Optimum_85_MPI.PRM
   Tot(7)       22        5     1987    250.7    477.0   1168.0   348.98      0.0    236.4     14.3     17.7      0.0    107.9       54    270.4    269.5      100     0.000     0.000     0.000     0.000      107        0        0        0       14        5        0    19.631       96     40.3    7.909   -9.900     2.09    0.000    0.000       11        9     1987  Maize_short_Chisinau_22May_Optimum_85_MPI.PRM
   Tot(8)       22        5     1988    311.4    459.2   1267.4   351.45      0.0    269.3     42.1     29.3      0.0    109.3       61    276.0    277.3       96     0.000     0.000     0.000     0.000      107        0        0        0       10        3        3    19.884       93     40.1    7.978   -9.900     2.07    0.000    0.000       11        9     1988  Maize_short_Chisinau_22May_Optimum_85_MPI.PRM
   Tot(9)       22        5     1989    328.6    451.3   1181.5   352.89      0.0    298.7     29.9      2.2      0.0    122.8       64    266.6    266.3      100     0.000     0.000     0.000     0.000      107        0        0        0       12        6        0    20.582       96     40.2    8.276   -9.900     2.12    0.000    0.000       11        9     1989  Maize_short_Chisinau_22May_Optimum_85_MPI.PRM
  Tot(10)       22        5     1990    157.0    493.1   1149.4   354.16      0.0    152.3      4.7     14.4      0.0    127.9       58    226.3    227.4       85     0.000     0.000     0.000     0.000      107        0        0        0       15       11       15    15.823       74     40.0    6.324   -9.900     1.79    0.000    0.000       11        9     1990  Maize_short_Chisinau_22May_Optimum_85_MPI.PRM
  Tot(11)       22        5     1991    405.5    420.3   1208.7   355.48      0.0    355.8     49.7     77.0      0.0    124.2       75    257.2    255.5      100     0.000     0.000     0.000     0.000      107        0        0        0       12        1        0    21.188       97     40.0    8.484   -9.900     2.22    0.000    0.000       11        9     1991  Maize_short_Chisinau_22May_Optimum_85_MPI.PRM
  Tot(12)       22        5     1992    188.3    518.5   1278.0   356.27      0.0    184.1      4.2      9.8      0.0    142.9       69    245.6    246.9       80     0.000     0.000     0.000     0.000      107        0        0        0       10       10       15    15.557       70     39.8    6.185   -9.900     1.59    0.000    0.000       11        9     1992  Maize_short_Chisinau_22May_Optimum_85_MPI.PRM
  Tot(13)       22        5     1993    166.0    491.7   1142.1   356.95      0.0    165.4      0.6      0.6      0.0    100.5       48    257.7    256.2       96     0.000     0.000     0.000     0.000      107        0        0        0       16        3        3    18.197       92     40.1    7.295   -9.900     2.04    0.000    0.000       11        9     1993  Maize_short_Chisinau_22May_Optimum_85_MPI.PRM
  Tot(14)       22        5     1994    259.6    519.0   1314.2   358.63      0.0    220.5     39.1     11.8      0.0    105.0       44    265.8    265.9       90     0.000     0.000     0.000     0.000      107        0        0        0       10       12        6    18.389       80     40.5    7.438   -9.900     2.01    0.000    0.000       11        9     1994  Maize_short_Chisinau_22May_Optimum_85_MPI.PRM
  Tot(15)       22        5     1995    240.9    497.5   1341.7   360.62      0.0    225.7     15.2      1.4      0.0     92.6       40    269.9    269.8       96     0.000     0.000     0.000     0.000      107        0        0        0        5        7        2    20.160       90     40.2    8.106   -9.900     2.24    0.000    0.000       11        9     1995  Maize_short_Chisinau_22May_Optimum_85_MPI.PRM
  Tot(16)       22        5     1996    178.3    510.0   1221.6   362.37      0.0    174.6      3.7      2.9      0.0     99.7       37    225.6    226.8       92     0.000     0.000     0.000     0.000      107        0        0        0       12       18        5    16.759       80     40.6    6.796   -9.900     2.09    0.000    0.000       11        9     1996  Maize_short_Chisinau_22May_Optimum_85_MPI.PRM
  Tot(17)       22        5     1997    330.1    417.1   1153.3   363.47      0.0    310.1     20.0      0.0      0.0    110.0       60    233.5    233.1      100     0.000     0.000     0.000     0.000      107        0        0        0       13        0        0    20.929       97     40.0    8.371   -9.900     2.44    0.000    0.000       11        9     1997  Maize_short_Chisinau_22May_Optimum_85_MPI.PRM
  Tot(18)       22        5     1998    213.1    479.8   1242.4   366.50      0.0    207.8      5.3      0.7      0.0    115.1       59    266.4    265.3       95     0.000     0.000     0.000     0.000      107        0        0        0       13        2        3    18.830       92     40.1    7.547   -9.900     1.98    0.000    0.000       11        9     1998  Maize_short_Chisinau_22May_Optimum_85_MPI.PRM
  Tot(19)       22        5     1999    155.4    516.5   1415.8   368.14      0.0    153.9      1.5      0.0      0.0    105.1       43    252.3    251.9       88     0.000     0.000     0.000     0.000      107        0        0        0        3       15        9    18.251       79     40.5    7.393   -9.900     2.07    0.000    0.000       11        9     1999  Maize_short_Chisinau_22May_Optimum_85_MPI.PRM
  Tot(20)       22        5     2000    200.0    540.4   1259.7   369.41      0.0    193.4      6.6      0.0      0.0     72.3       28    279.5    280.1       97     0.000     0.000     0.000     0.000      107        0        0        0       12        8        1    19.340       90     40.1    7.751   -9.900     2.20    0.000    0.000       11        9     2000  Maize_short_Chisinau_22May_Optimum_85_MPI.PRM
  Tot(21)       22        5     2001    281.1    504.5   1316.2   371.07      0.0    245.1     36.0     26.0      0.0    132.2       60    241.5    242.7       84     0.000     0.000     0.000     0.000      107        0        0        0        9        8       12    16.266       71     39.8    6.475   -9.900     1.73    0.000    0.000       11        9     2001  Maize_short_Chisinau_22May_Optimum_85_MPI.PRM
  Tot(22)       22        5     2002    297.2    513.7   1401.0   373.16      0.0    270.0     27.2      3.8      0.0    111.4       47    297.6    296.9      100     0.000     0.000     0.000     0.000      107        0        0        0        5       10        0    21.695       92     40.0    8.683   -9.900     2.12    0.000    0.000       11        9     2002  Maize_short_Chisinau_22May_Optimum_85_MPI.PRM
  Tot(23)       22        5     2003    199.3    543.0   1313.0   375.80      0.0    197.8      1.5      0.0      0.0     98.0       37    284.3    283.9       99     0.000     0.000     0.000     0.000      107        0        0        0        8        4        1    20.420       93     40.0    8.176   -9.900     2.14    0.000    0.000       11        9     2003  Maize_short_Chisinau_22May_Optimum_85_MPI.PRM
  Tot(24)       22        5     2004    212.6    500.0   1203.6   377.49      0.0    201.0     11.6      4.7      0.0    100.0       44    275.9    277.2      100     0.000     0.000     0.000     0.000      107        0        0        0       11        5        0    20.884       95     40.1    8.381   -9.900     2.23    0.000    0.000       11        9     2004  Maize_short_Chisinau_22May_Optimum_85_MPI.PRM
  Tot(25)       22        5     2005    280.2    489.9   1320.0   379.80      0.0    268.2     12.0      8.5      0.0    136.2       63    286.2    283.8      100     0.000     0.000     0.000     0.000      107        0        0        0        7        4        0    22.353       97     40.3    9.001   -9.900     2.13    0.000    0.000       11        9     2005  Maize_short_Chisinau_22May_Optimum_85_MPI.PRM
  Tot(26)       22        5     2006    278.5    526.4   1284.9   381.90      0.0    269.3      9.2     16.0      0.0    136.6       60    298.8    300.1       97     0.000     0.000     0.000     0.000      107        0        0        0       10       10        3    20.524       91     40.5    8.318   -9.900     1.91    0.000    0.000       11        9     2006  Maize_short_Chisinau_22May_Optimum_85_MPI.PRM
  Tot(27)       22        5     2007    161.9    617.8   1470.3   383.77      0.0    161.4      0.5      0.0      0.0    116.1       35    245.5    246.2       83     0.000     0.000     0.000     0.000      107        0        0        0        4       26       12    15.024       65     40.6    6.098   -9.900     1.69    0.000    0.000       11        9     2007  Maize_short_Chisinau_22May_Optimum_85_MPI.PRM
  Tot(28)       22        5     2008    182.6    561.4   1363.1   385.59      0.0    176.9      5.7      0.0      0.0    116.7       46    277.8    278.1       87     0.000     0.000     0.000     0.000      107        0        0        0        5        9       11    18.297       78     39.7    7.265   -9.900     1.84    0.000    0.000       11        9     2008  Maize_short_Chisinau_22May_Optimum_85_MPI.PRM
  Tot(29)       22        5     2009    196.0    575.6   1374.3   387.37      0.0    194.3      1.7      0.0      0.0    110.1       41    287.8    285.3       89     0.000     0.000     0.000     0.000      107        0        0        0        5       10        9    18.654       80     40.2    7.495   -9.900     1.88    0.000    0.000       11        9     2009  Maize_short_Chisinau_22May_Optimum_85_MPI.PRM
  Tot(30)       22        5     2010    257.3    510.9   1415.8   389.85      0.0    240.3     17.0     19.1      0.0    119.7       54    279.4    281.2       93     0.000     0.000     0.000     0.000      107        0        0        0        7        2        4    19.996       89     40.0    7.989   -9.900     2.00    0.000    0.000       11        9     2010  Maize_short_Chisinau_22May_Optimum_85_MPI.PRM
  Tot(31)       22        5     2011    216.4    549.6   1380.9   391.63      0.0    201.6     14.8     17.5      0.0    132.6       53    266.5    267.1       86     0.000     0.000     0.000     0.000      107        0        0        0        5        6       12    18.207       78     39.8    7.240   -9.900     1.81    0.000    0.000       11        9     2011  Maize_short_Chisinau_22May_Optimum_85_MPI.PRM
  Tot(32)       22        5     2012    177.6    615.9   1446.5   393.82      0.0    168.8      8.8     12.1      0.0    107.7       37    267.2    267.5       81     0.000     0.000     0.000     0.000      107        0        0        0        4       16       16    15.749       67     40.1    6.316   -9.900     1.68    0.000    0.000       11        9     2012  Maize_short_Chisinau_22May_Optimum_85_MPI.PRM
  Tot(33)       22        5     2013    299.8    518.6   1351.6   396.48      0.0    269.2     30.6     27.2      0.0    140.8       64    290.2    289.3       94     0.000     0.000     0.000     0.000      107        0        0        0        6        5        4    20.727       90     40.2    8.337   -9.900     1.93    0.000    0.000       11        9     2013  Maize_short_Chisinau_22May_Optimum_85_MPI.PRM
  Tot(34)       22        5     2014    198.3    560.2   1404.9   398.55      0.0    195.8      2.5      1.7      0.0    113.0       48    296.0    296.3       88     0.000     0.000     0.000     0.000      107        0        0        0        5        6       10    19.295       82     39.9    7.700   -9.900     1.88    0.000    0.000       11        9     2014  Maize_short_Chisinau_22May_Optimum_85_MPI.PRM
  Tot(35)       22        5     2015    123.3    607.4   1433.1   402.00      0.0    122.9      0.4      0.0      0.0    109.3       35    226.7    227.7       79     0.000     0.000     0.000     0.000      104        0        0        0        5       18       19    13.771       59     40.0    5.506   -9.900     1.64    0.000    0.000       11        9     2015  Maize_short_Chisinau_22May_Optimum_85_MPI.PRM
  Tot(36)       22        5     2016    224.9    558.8   1444.3   404.00      0.0    206.2     18.7     39.9      0.0    145.6       57    239.6    239.5       80     0.000     0.000     0.000     0.000      107        0        0        0        4       17       19    15.124       63     40.0    6.043   -9.900     1.57    0.000    0.000       11        9     2016  Maize_short_Chisinau_22May_Optimum_85_MPI.PRM
  Tot(37)       22        5     2017    256.1    554.9   1388.6   407.00      0.0    243.1     13.0      9.7      0.0    125.5       53    314.5    313.1       96     0.000     0.000     0.000     0.000      107        0        0        0        5        4        4    21.174       91     40.1    8.482   -9.900     1.93    0.000    0.000       11        9     2017  Maize_short_Chisinau_22May_Optimum_85_MPI.PRM
  Tot(38)       22        5     2018    285.1    545.5   1487.3   410.00      0.0    268.7     16.4     20.6      0.0    120.4       48    304.0    304.8       96     0.000     0.000     0.000     0.000      107        0        0        0        3        2        3    21.961       92     39.9    8.773   -9.900     2.07    0.000    0.000       11        9     2018  Maize_short_Chisinau_22May_Optimum_85_MPI.PRM
  Tot(39)       22        5     2019    214.6    570.8   1477.1   413.00      0.0    207.5      7.1     13.9      0.0    141.2       55    273.3    273.4       86     0.000     0.000     0.000     0.000      107        0        0        0        2       11       12    18.341       77     40.0    7.339   -9.900     1.77    0.000    0.000       11        9     2019  Maize_short_Chisinau_22May_Optimum_85_MPI.PRM
  Tot(40)       22        5     2020    104.7    511.3   1202.1   416.00      0.0    104.5      0.2      1.3      0.0     84.7       36    230.2    230.4       83     0.000     0.000     0.000     0.000      107        0        0        0       14       14       14    15.964       73     40.2    6.414   -9.900     2.04    0.000    0.000       11        9     2020  Maize_short_Chisinau_22May_Optimum_85_MPI.PRM
  Tot(41)       22        5     2021    161.4    464.1   1120.6   419.00      0.0    157.4      4.0     10.1      0.0     98.7       51    251.3    249.9       95     0.000     0.000     0.000     0.000      107        0        0        0       16        4        4    19.413       90     40.0    7.774   -9.900     2.22    0.000    0.000       11        9     2021  Maize_short_Chisinau_22May_Optimum_85_MPI.PRM
  Tot(42)       22        5     2022    181.0    494.3   1200.9   422.00      0.0    163.7     17.3     21.1      0.0    123.1       60    235.6    237.1       85     0.000     0.000     0.000     0.000      107        0        0        0       11        6       12    17.451       78     39.9    6.957   -9.900     1.94    0.000    0.000       11        9     2022  Maize_short_Chisinau_22May_Optimum_85_MPI.PRM
  Tot(43)       22        5     2023    272.5    456.5   1127.6   425.00      0.0    223.1     49.4      8.2      0.0     84.7       38    232.9    231.8      100     0.000     0.000     0.000     0.000      107        0        0        0       16        7        0    20.122       93     40.0    8.049   -9.900     2.53    0.000    0.000       11        9     2023  Maize_short_Chisinau_22May_Optimum_85_MPI.PRM
  Tot(44)       22        5     2024    146.5    453.4   1056.7   428.00      0.0    145.1      1.4      0.0      0.0     93.1       45    216.4    217.7       92     0.000     0.000     0.000     0.000      107        0        0        0       20       14        5    17.031       85     40.5    6.902   -9.900     2.23    0.000    0.000       11        9     2024  Maize_short_Chisinau_22May_Optimum_85_MPI.PRM
  Tot(45)       22        5     2025    242.9    507.6   1186.9   431.00      0.0    191.9     51.0      0.0      0.0     74.4       28    229.2    229.4       90     0.000     0.000     0.000     0.000      107        0        0        0       14       21        6    16.742       78     40.8    6.824   -9.900     2.25    0.000    0.000       11        9     2025  Maize_short_Chisinau_22May_Optimum_85_MPI.PRM
  Tot(46)       22        5     2026    272.2    504.1   1328.7   435.00      0.0    252.5     19.7      0.0      0.0     94.5       35    247.3    246.4      100     0.000     0.000     0.000     0.000      107        0        0        0        7        7        0    21.247       93     40.0    8.504   -9.900     2.49    0.000    0.000       11        9     2026  Maize_short_Chisinau_22May_Optimum_85_MPI.PRM
  Tot(47)       22        5     2027    184.3    452.0   1142.0   438.00      0.0    180.0      4.3      3.4      0.0     97.3       45    230.6    230.4      100     0.000     0.000     0.000     0.000      107        0        0        0       13        2        0    20.449       96     40.1    8.191   -9.900     2.50    0.000    0.000       11        9     2027  Maize_short_Chisinau_22May_Optimum_85_MPI.PRM
  Tot(48)       22        5     2028    216.9    464.5   1126.1   442.00      0.0    207.4      9.5      2.0      0.0    113.8       63    259.8    258.8       92     0.000     0.000     0.000     0.000      107        0        0        0       13        4        5    20.408       88     40.1    8.179   -9.900     2.19    0.000    0.000       11        9     2028  Maize_short_Chisinau_22May_Optimum_85_MPI.PRM
  Tot(49)       22        5     2029    329.2    407.1   1149.2   445.00      0.0    294.4     34.8     42.0      0.0    109.4       63    229.9    231.0      100     0.000     0.000     0.000     0.000      107        0        0        0       13        0        0    22.019       98     40.0    8.810   -9.900     2.60    0.000    0.000       11        9     2029  Maize_short_Chisinau_22May_Optimum_85_MPI.PRM
  Tot(50)       22        5     2030    140.8    479.0   1054.3   449.00      0.0    138.1      2.7      0.0      0.0     84.2       39    235.7    236.3       99     0.000     0.000     0.000     0.000      107        0        0        0       20       11        1    18.736       92     40.5    7.581   -9.900     2.37    0.000    0.000       11        9     2030  Maize_short_Chisinau_22May_Optimum_85_MPI.PRM
  Tot(51)       22        5     2031    303.6    394.7   1012.6   452.00      0.0    266.6     37.0     79.1      0.0    110.3       76    218.6    218.8      100     0.000     0.000     0.000     0.000      107        0        0        0       24        0        0    19.296       98     40.0    7.724   -9.900     2.35    0.000    0.000       11        9     2031  Maize_short_Chisinau_22May_Optimum_85_MPI.PRM
  Tot(52)       22        5     2032    139.4    535.9   1260.1   456.00      0.0    136.2      3.2      4.5      0.0    102.8       42    240.5    240.2       83     0.000     0.000     0.000     0.000      107        0        0        0       10       16       13    16.161       68     40.1    6.480   -9.900     1.89    0.000    0.000       11        9     2032  Maize_short_Chisinau_22May_Optimum_85_MPI.PRM
  Tot(53)       22        5     2033    201.3    488.7   1141.0   460.00      0.0    193.0      8.3     30.8      0.0    101.4       50    259.4    258.8       96     0.000     0.000     0.000     0.000      107        0        0        0       12        4        4    19.979       91     40.1    8.016   -9.900     2.22    0.000    0.000       11        9     2033  Maize_short_Chisinau_22May_Optimum_85_MPI.PRM
  Tot(54)       22        5     2034    159.3    546.3   1375.2   464.00      0.0    157.1      2.2      6.2      0.0     97.0       39    271.6    271.6       89     0.000     0.000     0.000     0.000      107        0        0        0        4       12        9    19.305       81     40.2    7.757   -9.900     2.10    0.000    0.000       11        9     2034  Maize_short_Chisinau_22May_Optimum_85_MPI.PRM
  Tot(55)       22        5     2035    113.9    527.3   1179.6   468.00      0.0    110.5      3.4     10.8      0.0    113.4       41    194.8    195.8       81     0.000     0.000     0.000     0.000      102        0        0        0       11       22       18    13.250       59     39.0    5.166   -9.900     1.69    0.000    0.000       11        9     2035  Maize_short_Chisinau_22May_Optimum_85_MPI.PRM
  Tot(56)       22        5     2036     93.5    625.3   1386.8   472.00      0.0     93.4      0.1      0.0      0.0     99.3       29    205.4    205.4       77     0.000     0.000     0.000     0.000       98        0        0        0        6       22       19    12.049       51     34.9    4.203   -9.900     1.39    0.000    0.000       11        9     2036  Maize_short_Chisinau_22May_Optimum_85_MPI.PRM
  Tot(57)       22        5     2037    154.1    475.8   1199.4   476.00      0.0    150.9      3.2      8.5      0.0    114.9       62    243.7    243.2       87     0.000     0.000     0.000     0.000      107        0        0        0       10        4       10    19.225       83     39.9    7.675   -9.900     2.14    0.000    0.000       11        9     2037  Maize_short_Chisinau_22May_Optimum_85_MPI.PRM
  Tot(58)       22        5     2038    157.0    547.8   1201.0   481.00      0.0    148.9      8.1      0.0      0.0    105.4       39    217.8    217.9       82     0.000     0.000     0.000     0.000      107        0        0        0       17       25       12    14.619       67     40.4    5.909   -9.900     1.83    0.000    0.000       11        9     2038  Maize_short_Chisinau_22May_Optimum_85_MPI.PRM
  Tot(59)       22        5     2039    200.4    473.4   1259.4   485.00      0.0    195.2      5.2      0.0      0.0    103.5       50    264.4    262.3      100     0.000     0.000     0.000     0.000      107        0        0        0        8        2        0    22.423       96     40.0    8.971   -9.900     2.44    0.000    0.000       11        9     2039  Maize_short_Chisinau_22May_Optimum_85_MPI.PRM
  Tot(60)       22        5     2040    220.1    423.6   1116.6   489.00      0.0    205.9     14.2     39.4      0.0    115.5       73    245.9    246.8       97     0.000     0.000     0.000     0.000      107        0        0        0       18        1        2    21.448       95     40.0    8.590   -9.900     2.38    0.000    0.000       11        9     2040  Maize_short_Chisinau_22May_Optimum_85_MPI.PRM
  Tot(61)       22        5     2041    226.4    516.6   1180.2   494.00      0.0    182.5     43.9      0.0      0.0     84.4       36    261.6    262.2       95     0.000     0.000     0.000     0.000      107        0        0        0       15       10        2    19.891       88     40.3    8.023   -9.900     2.32    0.000    0.000       11        9     2041  Maize_short_Chisinau_22May_Optimum_85_MPI.PRM
  Tot(62)       22        5     2042    213.7    469.6   1173.2   499.00      0.0    200.3     13.4      0.0      0.0     95.9       43    246.7    246.1      100     0.000     0.000     0.000     0.000      107        0        0        0       12        3        0    22.138       96     40.0    8.858   -9.900     2.59    0.000    0.000       11        9     2042  Maize_short_Chisinau_22May_Optimum_85_MPI.PRM
  Tot(63)       22        5     2043    166.5    488.9   1302.4   504.00      0.0    165.2      1.3      2.2      0.0    114.6       60    265.4    266.6       89     0.000     0.000     0.000     0.000      107        0        0        0        7        7        9    20.355       83     40.1    8.163   -9.900     2.15    0.000    0.000       11        9     2043  Maize_short_Chisinau_22May_Optimum_85_MPI.PRM
  Tot(64)       22        5     2044    111.4    547.6   1310.8   508.00      0.0    109.3      2.1      0.0      0.0     87.7       37    243.3    243.4       82     0.000     0.000     0.000     0.000      107        0        0        0        7       11       14    17.570       74     40.0    7.021   -9.900     2.12    0.000    0.000       11        9     2044  Maize_short_Chisinau_22May_Optimum_85_MPI.PRM
  Tot(65)       22        5     2045    144.3    538.1   1351.5   513.00      0.0    142.8      1.5      0.0      0.0    112.6       41    241.0    240.6       89     0.000     0.000     0.000     0.000      107        0        0        0        5       20       10    18.586       77     40.6    7.553   -9.900     2.14    0.000    0.000       11        9     2045  Maize_short_Chisinau_22May_Optimum_85_MPI.PRM
  Tot(66)       22        5     2046    324.7    435.9   1231.3   519.00      0.0    305.8     18.9     31.6      0.0    120.6       72    266.8    266.9      100     0.000     0.000     0.000     0.000      107        0        0        0        9        1        0    23.170       97     40.1    9.289   -9.900     2.40    0.000    0.000       11        9     2046  Maize_short_Chisinau_22May_Optimum_85_MPI.PRM
  Tot(67)       22        5     2047    250.0    451.8   1183.5   524.00      0.0    243.3      6.7      7.1      0.0    116.4       54    226.9    225.0      100     0.000     0.000     0.000     0.000      107        0        0        0       13        6        0    20.736       95     40.1    8.305   -9.900     2.42    0.000    0.000       11        9     2047  Maize_short_Chisinau_22May_Optimum_85_MPI.PRM
  Tot(68)       22        5     2048    109.4    565.9   1372.9   529.00      0.0    107.5      1.9      3.8      0.0    112.5       38    196.6    199.3       79     0.000     0.000     0.000     0.000      100        0        0        0        9       25       18    12.828       51     37.3    4.783   -9.900     1.55    0.000    0.000       11        9     2048  Maize_short_Chisinau_22May_Optimum_85_MPI.PRM
  Tot(69)       22        5     2049    181.2    513.2   1276.1   535.00      0.0    176.4      4.8      1.1      0.0     95.5       48    287.7    286.3       94     0.000     0.000     0.000     0.000      107        0        0        0       10        3        5    21.275       90     40.0    8.513   -9.900     2.22    0.000    0.000       11        9     2049  Maize_short_Chisinau_22May_Optimum_85_MPI.PRM
  Tot(70)       22        5     2050    144.1    480.4   1276.8   541.00      0.0    143.8      0.3      0.0      0.0     89.1       40    243.8    244.9       95     0.000     0.000     0.000     0.000      107        0        0        0        9        5        4    21.481       90     40.1    8.616   -9.900     2.59    0.000    0.000       11        9     2050  Maize_short_Chisinau_22May_Optimum_85_MPI.PRM
  Tot(71)       22        5     2051    240.6    490.4   1228.6   546.00      0.0    232.2      8.4      3.7      0.0    112.2       55    275.5    275.6       97     0.000     0.000     0.000     0.000      107        0        0        0       10        4        2    22.332       94     40.2    8.980   -9.900     2.32    0.000    0.000       11        9     2051  Maize_short_Chisinau_22May_Optimum_85_MPI.PRM
  Tot(72)       22        5     2052    140.9    509.6   1256.1   552.00      0.0    140.6      0.3      0.0      0.0     88.1       40    245.4    243.9       87     0.000     0.000     0.000     0.000      107        0        0        0       12       10        8    18.830       80     40.2    7.577   -9.900     2.27    0.000    0.000       11        9     2052  Maize_short_Chisinau_22May_Optimum_85_MPI.PRM
  Tot(73)       22        5     2053    124.3    567.1   1367.3   558.00      0.0    124.2      0.1      0.4      0.0     84.1       32    249.6    250.1       84     0.000     0.000     0.000     0.000      107        0        0        0        9       11       12    17.733       75     40.0    7.091   -9.900     2.12    0.000    0.000       11        9     2053  Maize_short_Chisinau_22May_Optimum_85_MPI.PRM
  Tot(74)       22        5     2054    106.6    571.0   1382.3   564.00      0.0     96.7      9.9     17.9      0.0     91.3       30    196.1    197.3       79     0.000     0.000     0.000     0.000      101        0        0        0        3       22       19    13.170       53     38.0    5.011   -9.900     1.76    0.000    0.000       11        9     2054  Maize_short_Chisinau_22May_Optimum_85_MPI.PRM
  Tot(75)       22        5     2055    119.5    512.0   1253.2   571.00      0.0    118.1      1.4      0.0      0.0     87.0       41    248.0    247.4       86     0.000     0.000     0.000     0.000      107        0        0        0       10       14       11    19.080       80     40.4    7.713   -9.900     2.30    0.000    0.000       11        9     2055  Maize_short_Chisinau_22May_Optimum_85_MPI.PRM
  Tot(76)       22        5     2056     84.9    548.6   1314.3   577.00      0.0     84.8      0.1      0.0      0.0     77.9       29    225.0    225.5       84     0.000     0.000     0.000     0.000      107        0        0        0        7       13       16    16.559       69     39.8    6.597   -9.900     2.18    0.000    0.000       11        9     2056  Maize_short_Chisinau_22May_Optimum_85_MPI.PRM
  Tot(77)       22        5     2057    124.4    560.0   1282.1   583.00      0.0    123.9      0.5      0.0      0.0    103.8       41    230.5    229.8       79     0.000     0.000     0.000     0.000      107        0        0        0       12       22       15    15.725       67     40.4    6.361   -9.900     1.90    0.000    0.000       11        9     2057  Maize_short_Chisinau_22May_Optimum_85_MPI.PRM
  Tot(78)       22        5     2058    304.1    425.5   1154.0   590.00      0.0    282.5     21.6     26.4      0.0    112.4       67    245.2    244.8      100     0.000     0.000     0.000     0.000      107        0        0        0       14        1        0    22.360       97     40.1    8.960   -9.900     2.51    0.000    0.000       11        9     2058  Maize_short_Chisinau_22May_Optimum_85_MPI.PRM
  Tot(79)       22        5     2059    135.3    595.8   1429.6   597.00      0.0    132.9      2.4      3.8      0.0    123.1       45    220.8    222.0       77     0.000     0.000     0.000     0.000      107        0        0        0        5       16       24    14.125       57     37.7    5.326   -9.900     1.55    0.000    0.000       11        9     2059  Maize_short_Chisinau_22May_Optimum_85_MPI.PRM
  Tot(80)       22        5     2060    145.6    553.3   1285.0   604.00      0.0    140.2      5.4      0.1      0.0     82.5       32    268.1    267.0       92     0.000     0.000     0.000     0.000      107        0        0        0        8        7        6    20.544       87     40.2    8.262   -9.900     2.36    0.000    0.000       11        9     2060  Maize_short_Chisinau_22May_Optimum_85_MPI.PRM
  Tot(81)       22        5     2061    208.9    457.9   1121.1   611.00      0.0    204.8      4.1     11.0      0.0    116.3       64    253.4    253.2       98     0.000     0.000     0.000     0.000      107        0        0        0       18        7        2    20.795       94     40.4    8.403   -9.900     2.27    0.000    0.000       11        9     2061  Maize_short_Chisinau_22May_Optimum_85_MPI.PRM
  Tot(82)       22        5     2062    130.5    512.6   1336.3   618.00      0.0    130.3      0.2      2.0      0.0    101.4       46    229.8    230.0       82     0.000     0.000     0.000     0.000      107        0        0        0        5        8       13    18.392       75     39.9    7.333   -9.900     2.21    0.000    0.000       11        9     2062  Maize_short_Chisinau_22May_Optimum_85_MPI.PRM
  Tot(83)       22        5     2063    259.4    515.0   1326.1   625.00      0.0    236.3     23.1     30.1      0.0     93.9       39    258.8    258.7       97     0.000     0.000     0.000     0.000      107        0        0        0        7        6        1    21.615       92     40.2    8.681   -9.900     2.46    0.000    0.000       11        9     2063  Maize_short_Chisinau_22May_Optimum_85_MPI.PRM
  Tot(84)       22        5     2064    167.1    529.3   1408.1   632.00      0.0    166.1      1.0      0.0      0.0    100.2       44    272.3    272.2       92     0.000     0.000     0.000     0.000      107        0        0        0        3        6        7    21.321       86     40.1    8.551   -9.900     2.30    0.000    0.000       11        9     2064  Maize_short_Chisinau_22May_Optimum_85_MPI.PRM
  Tot(85)       22        5     2065    193.4    509.4   1268.6   639.00      0.0    179.3     14.1     18.2      0.0     89.6       42    270.9    272.0       96     0.000     0.000     0.000     0.000      107        0        0        0        9        3        3    21.616       92     40.1    8.660   -9.900     2.40    0.000    0.000       11        9     2065  Maize_short_Chisinau_22May_Optimum_85_MPI.PRM
  Tot(86)       22        5     2066    240.1    647.6   1488.3   647.00      0.0    193.6     46.5      0.0      0.0     90.0       27    232.9    232.2       78     0.000     0.000     0.000     0.000      107        0        0        0        5       21       13    15.054       63     40.1    6.038   -9.900     1.87    0.000    0.000       11        9     2066  Maize_short_Chisinau_22May_Optimum_85_MPI.PRM
  Tot(87)       22        5     2067    212.5    498.7   1262.4   654.00      0.0    204.7      7.8      0.0      0.0     73.6       31    255.5    254.2      100     0.000     0.000     0.000     0.000      107        0        0        0       10        5        0    21.839       95     40.2    8.768   -9.900     2.66    0.000    0.000       11        9     2067  Maize_short_Chisinau_22May_Optimum_85_MPI.PRM
  Tot(88)       22        5     2068    180.2    503.4   1287.9   662.00      0.0    175.2      5.0      7.8      0.0    105.5       48    241.8    243.4       90     0.000     0.000     0.000     0.000      107        0        0        0       12       16        7    18.491       79     40.5    7.487   -9.900     2.16    0.000    0.000       11        9     2068  Maize_short_Chisinau_22May_Optimum_85_MPI.PRM
  Tot(89)       22        5     2069    234.5    492.4   1337.8   669.00      0.0    223.7     10.8     12.8      0.0     86.6       38    247.0    245.1      100     0.000     0.000     0.000     0.000      107        0        0        0        7        7        0    21.760       94     40.1    8.734   -9.900     2.62    0.000    0.000       11        9     2069  Maize_short_Chisinau_22May_Optimum_85_MPI.PRM
  Tot(90)       22        5     2070     34.4    618.3   1475.3   677.00      0.0     34.4      0.0      0.0      0.0     64.1       18    178.2    180.6       75     0.000     0.000     0.000     0.000       94        0        0        0        5       27       19    11.023       44     31.0    3.412   -9.900     1.42    0.000    0.000       11        9     2070  Maize_short_Chisinau_22May_Optimum_85_MPI.PRM
  Tot(91)       22        5     2071    113.9    592.7   1509.5   685.00      0.0    113.4      0.5      0.0      0.0    118.7       42    216.3    216.3       78     0.000     0.000     0.000     0.000      106        0        0        0        4       19       19    15.508       62     39.5    6.131   -9.900     1.83    0.000    0.000       11        9     2071  Maize_short_Chisinau_22May_Optimum_85_MPI.PRM
  Tot(92)       22        5     2072    103.9    653.3   1513.3   693.00      0.0    100.6      3.3      4.4      0.0     94.3       24    188.3    188.0       76     0.000     0.000     0.000     0.000      107        0        0        0        2       28       15    11.541       46     40.3    4.655   -9.900     1.65    0.000    0.000       11        9     2072  Maize_short_Chisinau_22May_Optimum_85_MPI.PRM
  Tot(93)       22        5     2073    185.2    415.7   1176.7   701.00      0.0    169.0     16.2     15.4      0.0     94.8       59    237.9    236.3      100     0.000     0.000     0.000     0.000      107        0        0        0       12        3        0    22.806       97     40.0    9.126   -9.900     2.74    0.000    0.000       11        9     2073  Maize_short_Chisinau_22May_Optimum_85_MPI.PRM
  Tot(94)       22        5     2074    235.4    477.7   1305.1   709.00      0.0    210.2     25.2     12.5      0.0     99.8       46    245.8    246.1      100     0.000     0.000     0.000     0.000      107        0        0        0        6        1        0    22.906       97     40.0    9.168   -9.900     2.65    0.000    0.000       11        9     2074  Maize_short_Chisinau_22May_Optimum_85_MPI.PRM
  Tot(95)       22        5     2075    138.7    533.1   1438.4   717.00      0.0    129.9      8.8     20.6      0.0    108.9       47    219.5    221.1       81     0.000     0.000     0.000     0.000      107        0        0        0        3       10       18    16.438       66     39.7    6.531   -9.900     1.99    0.000    0.000       11        9     2075  Maize_short_Chisinau_22May_Optimum_85_MPI.PRM
  Tot(96)       22        5     2076    138.2    594.3   1525.9   725.00      0.0    133.1      5.1      0.0      0.0    107.8       34    219.0    218.1       82     0.000     0.000     0.000     0.000      107        0        0        0        3       27       12    15.443       63     40.5    6.258   -9.900     1.91    0.000    0.000       11        9     2076  Maize_short_Chisinau_22May_Optimum_85_MPI.PRM
  Tot(97)       22        5     2077    180.4    537.9   1478.5   733.00      0.0    178.7      1.7      0.0      0.0    122.6       51    233.3    233.5       84     0.000     0.000     0.000     0.000      107        0        0        0        4       11       12    17.531       72     39.9    6.990   -9.900     1.96    0.000    0.000       11        9     2077  Maize_short_Chisinau_22May_Optimum_85_MPI.PRM
  Tot(98)       22        5     2078    187.0    522.8   1439.6   742.00      0.0    181.0      6.0     12.1      0.0    102.3       46    267.0    266.9       94     0.000     0.000     0.000     0.000      107        0        0        0        5        3        4    21.811       91     40.0    8.735   -9.900     2.37    0.000    0.000       11        9     2078  Maize_short_Chisinau_22May_Optimum_85_MPI.PRM
  Tot(99)       22        5     2079    156.8    534.4   1311.4   750.00      0.0    146.3     10.5      9.4      0.0     88.5       39    261.5    261.4       90     0.000     0.000     0.000     0.000      107        0        0        0        6        2        7    21.042       87     39.8    8.375   -9.900     2.39    0.000    0.000       11        9     2079  Maize_short_Chisinau_22May_Optimum_85_MPI.PRM
 Tot(100)       22        5     2080    105.9    569.2   1468.7   758.00      0.0    104.7      1.2      0.0      0.0     60.5       23    259.1    259.0       89     0.000     0.000     0.000     0.000      107        0        0        0        3        9       10    19.207       79     39.8    7.651   -9.900     2.39    0.000    0.000       11        9     2080  Maize_short_Chisinau_22May_Optimum_85_MPI.PRM
 Tot(101)       22        5     2081    194.6    496.7   1378.9   767.00      0.0    185.6      9.0     11.7      0.0     98.1       50    274.1    273.1       97     0.000     0.000     0.000     0.000      107        0        0        0        6        4        2    22.667       94     40.2    9.114   -9.900     2.45    0.000    0.000       11        9     2081  Maize_short_Chisinau_22May_Optimum_85_MPI.PRM
 Tot(102)       22        5     2082     50.4    668.9   1610.0   775.00      0.0     50.4      0.0      0.6      0.0     74.5       20    188.0    190.0       77     0.000     0.000     0.000     0.000       97        0        0        0        1       24       19    12.001       48     33.9    4.066   -9.900     1.56    0.000    0.000       11        9     2082  Maize_short_Chisinau_22May_Optimum_85_MPI.PRM
 Tot(103)       22        5     2083    140.2    552.2   1486.2   784.00      0.0    134.8      5.4     18.7      0.0    105.4       44    227.4    227.3       81     0.000     0.000     0.000     0.000      107        0        0        0        4        9       18    16.332       67     39.6    6.474   -9.900     1.95    0.000    0.000       11        9     2083  Maize_short_Chisinau_22May_Optimum_85_MPI.PRM
 Tot(104)       22        5     2084    167.5    491.5   1425.7   792.00      0.0    166.5      1.0      0.0      0.0    100.1       45    246.0    245.5       98     0.000     0.000     0.000     0.000      107        0        0        0        5        6        1    22.168       93     40.2    8.920   -9.900     2.58    0.000    0.000       11        9     2084  Maize_short_Chisinau_22May_Optimum_85_MPI.PRM
 Tot(105)       22        5     2085    126.8    606.3   1462.6   801.00      0.0    119.5      7.3     14.4      0.0     95.9       35    226.2    226.4       77     0.000     0.000     0.000     0.000      107        0        0        0        4       13       19    15.167       62     39.7    6.022   -9.900     1.87    0.000    0.000       11        9     2085  Maize_short_Chisinau_22May_Optimum_85_MPI.PRM
 Tot(106)       22        5     2086    166.2    601.6   1521.5   810.00      0.0    154.9     11.3     21.7      0.0    108.7       40    244.8    244.9       83     0.000     0.000     0.000     0.000      107        0        0        0        2       13       15    17.023       70     39.4    6.708   -9.900     1.90    0.000    0.000       11        9     2086  Maize_short_Chisinau_22May_Optimum_85_MPI.PRM
 Tot(107)       22        5     2087    130.8    524.6   1410.5   818.00      0.0    124.1      6.7      0.0      0.0     98.2       39    222.4    221.5       87     0.000     0.000     0.000     0.000      107        0        0        0        6       24        8    17.698       74     40.8    7.216   -9.900     2.25    0.000    0.000       11        9     2087  Maize_short_Chisinau_22May_Optimum_85_MPI.PRM
 Tot(108)       22        5     2088    206.3    552.1   1443.3   827.00      0.0    179.2     27.1     48.0      0.0    111.7       42    230.1    230.6       87     0.000     0.000     0.000     0.000      107        0        0        0        3       13       11    18.207       76     40.4    7.354   -9.900     2.15    0.000    0.000       11        9     2088  Maize_short_Chisinau_22May_Optimum_85_MPI.PRM
 Tot(109)       22        5     2089    201.1    496.7   1330.2   836.00      0.0    191.9      9.2     19.6      0.0    101.8       54    265.8    264.4       95     0.000     0.000     0.000     0.000      107        0        0        0        7        7        4    21.077       91     40.4    8.516   -9.900     2.32    0.000    0.000       11        9     2089  Maize_short_Chisinau_22May_Optimum_85_MPI.PRM
 Tot(110)       22        5     2090     57.5    640.6   1519.4   845.00      0.0     57.5      0.0      0.0      0.0     76.6       20    179.3    181.5       80     0.000     0.000     0.000     0.000       99        0        0        0        5       30       17    11.149       46     36.4    4.056   -9.900     1.60    0.000    0.000       11        9     2090  Maize_short_Chisinau_22May_Optimum_85_MPI.PRM
 Tot(111)       22        5     2091    142.7    580.5   1512.5   854.00      0.0    140.6      2.1      0.0      0.0    106.3       39    230.3    229.3       83     0.000     0.000     0.000     0.000      107        0        0        0        2       19       11    16.918       70     40.5    6.856   -9.900     2.04    0.000    0.000       11        9     2091  Maize_short_Chisinau_22May_Optimum_85_MPI.PRM
 Tot(112)       22        5     2092     79.0    694.5   1619.8   863.00      0.0     78.7      0.3      0.0      0.0     87.1       24    203.2    204.2       76     0.000     0.000     0.000     0.000       95        0        0        0        1       21       20    11.757       49     32.0    3.760   -9.900     1.30    0.000    0.000       11        9     2092  Maize_short_Chisinau_22May_Optimum_85_MPI.PRM
 Tot(113)       22        5     2093    170.3    545.7   1472.2   872.00      0.0    156.4     13.9     21.0      0.0    107.3       50    246.0    245.4       85     0.000     0.000     0.000     0.000      107        0        0        0        3        4       13    18.744       78     39.7    7.446   -9.900     2.11    0.000    0.000       11        9     2093  Maize_short_Chisinau_22May_Optimum_85_MPI.PRM
 Tot(114)       22        5     2094    166.2    511.7   1414.9   881.00      0.0    155.5     10.7     18.4      0.0     92.0       41    239.2    238.1       91     0.000     0.000     0.000     0.000      107        0        0        0        5       15        6    19.929       83     40.7    8.106   -9.900     2.45    0.000    0.000       11        9     2094  Maize_short_Chisinau_22May_Optimum_85_MPI.PRM
 Tot(115)       22        5     2095    220.2    661.5   1647.3   890.00      0.0    152.3     67.9      0.0      0.0     83.5       20    206.4    207.9       86     0.000     0.000     0.000     0.000      107        0        0        0        1       30        9    14.343       60     40.5    5.816   -9.900     2.01    0.000    0.000       11        9     2095  Maize_short_Chisinau_22May_Optimum_85_MPI.PRM
 Tot(116)       22        5     2096     82.1    737.4   1762.1   899.00      0.0     81.9      0.2      0.0      0.0     88.3       22    207.9    208.1       74     0.000     0.000     0.000     0.000       97        0        0        0        0       18       20    11.955       50     33.4    3.996   -9.900     1.39    0.000    0.000       11        9     2096  Maize_short_Chisinau_22May_Optimum_85_MPI.PRM
 Tot(117)       22        5     2097    268.5    479.2   1437.1   908.00      0.0    240.3     28.2      0.0      0.0     81.9       34    222.0    219.9      100     0.000     0.000     0.000     0.000      107        0        0        0        4        5        0    21.862       94     40.0    8.753   -9.900     2.88    0.000    0.000       11        9     2097  Maize_short_Chisinau_22May_Optimum_85_MPI.PRM
 Tot(118)       22        5     2098    154.1    519.9   1387.2   917.00      0.0    150.8      3.3      0.0      0.0     90.2       40    258.9    259.5       97     0.000     0.000     0.000     0.000      107        0        0        0        4        6        3    21.831       92     40.2    8.781   -9.900     2.52    0.000    0.000       11        9     2098  Maize_short_Chisinau_22May_Optimum_85_MPI.PRM
 Tot(119)       22        5     2099    121.2    608.0   1539.0   927.00      0.0    119.6      1.6      0.8      0.0     88.0       28    201.2    201.6       80     0.000     0.000     0.000     0.000      107        0        0        0        3       30       14    13.189       56     40.6    5.352   -9.900     1.85    0.000    0.000       11        9     2099  Maize_short_Chisinau_22May_Optimum_85_MPI.PRM
