AquaCrop 7.0 (August 2022) - Output created on (date) : 23-11-2022   at (time) : 11:33:16

    RunNr     Day1   Month1    Year1     Rain      ETo       GD     CO2      Irri   Infilt   Runoff    Drain   Upflow        E     E/Ex       Tr      TrW   Tr/Trx    SaltIn   SaltOut    SaltUp  SaltProf     Cycle   SaltStr  FertStr  WeedStr  TempStr   ExpStr   StoStr  BioMass  Brelative   HI    Y(dry)  Y(fresh)    WPet      Bin     Bout     DayN   MonthN    YearN
                                           mm       mm  degC.day    ppm        mm       mm       mm       mm       mm       mm        %       mm       mm        %    ton/ha    ton/ha    ton/ha    ton/ha      days       %        %        %        %        %        %    ton/ha        %       %    ton/ha   ton/ha    kg/m3   ton/ha   ton/ha
   Tot(1)       22        5     1981    131.8    514.9   1295.7   340.11      0.0    131.0      0.8      0.0      0.0    103.1       43    242.3    187.9       87     0.000     0.000     0.000     0.000      107        0       42       25        8        8       10    13.074       61     40.1    5.245   -9.900     1.52    0.000    0.000       11        9     1981  Maize_short_Cahul_22May_NonOptimum_26_MPI.PRM
   Tot(2)       22        5     1982    240.1    482.2   1316.7   341.22      0.0    239.1      1.0      0.0      0.0    135.6       61    275.4    212.2      100     0.000     0.000     0.000     0.000      107        0       42       25        5        3        0    16.733       74     40.1    6.705   -9.900     1.63    0.000    0.000       11        9     1982  Maize_short_Cahul_22May_NonOptimum_26_MPI.PRM
   Tot(3)       22        5     1983    279.5    484.1   1295.1   342.84      0.0    252.0     27.5     32.8      0.0    123.2       58    279.7    217.1      100     0.000     0.000     0.000     0.000      107        0       42       25        7        5        0    16.256       74     40.2    6.533   -9.900     1.62    0.000    0.000       11        9     1983  Maize_short_Cahul_22May_NonOptimum_26_MPI.PRM
   Tot(4)       22        5     1984    165.7    468.8   1167.8   344.40      0.0    165.3      0.4      0.0      0.0    136.8       66    242.9    189.8       92     0.000     0.000     0.000     0.000      107        0       42       25       11        5        7    14.500       68     40.1    5.810   -9.900     1.53    0.000    0.000       11        9     1984  Maize_short_Cahul_22May_NonOptimum_26_MPI.PRM
   Tot(5)       22        5     1985    327.9    481.2   1222.6   345.87      0.0    296.5     31.4     47.4      0.0    134.3       67    278.4    214.6       98     0.000     0.000     0.000     0.000      107        0       42       25       12        3        1    15.693       74     40.1    6.300   -9.900     1.53    0.000    0.000       11        9     1985  Maize_short_Cahul_22May_NonOptimum_26_MPI.PRM
   Tot(6)       22        5     1986    159.8    540.0   1341.9   347.19      0.0    158.4      1.4      1.2      0.0    122.8       49    246.5    193.1       84     0.000     0.000     0.000     0.000      107        0       42       25        6       11       12    13.002       59     40.0    5.203   -9.900     1.41    0.000    0.000       11        9     1986  Maize_short_Cahul_22May_NonOptimum_26_MPI.PRM
   Tot(7)       22        5     1987    237.0    495.2   1234.6   348.98      0.0    226.5     10.5      5.8      0.0    111.8       54    293.7    227.1      100     0.000     0.000     0.000     0.000      107        0       42       25       10        4        0    16.131       74     40.2    6.484   -9.900     1.60    0.000    0.000       11        9     1987  Maize_short_Cahul_22May_NonOptimum_26_MPI.PRM
   Tot(8)       22        5     1988    215.6    496.5   1322.9   351.45      0.0    198.9     16.7     20.3      0.0    136.2       59    210.5    166.9       80     0.000     0.000     0.000     0.000      107        0       42       25        8       15       16    10.573       48     40.0    4.232   -9.900     1.22    0.000    0.000       11        9     1988  Maize_short_Cahul_22May_NonOptimum_26_MPI.PRM
   Tot(9)       22        5     1989    278.3    464.8   1227.8   352.89      0.0    269.4      8.9      0.8      0.0    130.8       68    277.9    214.9       98     0.000     0.000     0.000     0.000      107        0       42       25       11        5        1    16.020       73     40.1    6.426   -9.900     1.57    0.000    0.000       11        9     1989  Maize_short_Cahul_22May_NonOptimum_26_MPI.PRM
  Tot(10)       22        5     1990    134.6    519.4   1222.9   354.16      0.0    133.4      1.2      4.2      0.0    134.3       52    210.8    167.7       82     0.000     0.000     0.000     0.000      105        0       42       25       11       20       18    10.858       49     40.0    4.348   -9.900     1.26    0.000    0.000       11        9     1990  Maize_short_Cahul_22May_NonOptimum_26_MPI.PRM
  Tot(11)       22        5     1991    339.7    442.2   1261.6   355.48      0.0    294.4     45.3     75.9      0.0    115.8       67    276.1    212.4      100     0.000     0.000     0.000     0.000      107        0       42       25       10        2        0    16.678       75     40.1    6.687   -9.900     1.71    0.000    0.000       11        9     1991  Maize_short_Cahul_22May_NonOptimum_26_MPI.PRM
  Tot(12)       22        5     1992    172.1    523.4   1310.7   356.27      0.0    171.3      0.8      0.0      0.0    144.3       66    238.3    187.2       79     0.000     0.000     0.000     0.000      107        0       42       25        8       14       15    12.013       53     39.8    4.786   -9.900     1.25    0.000    0.000       11        9     1992  Maize_short_Cahul_22May_NonOptimum_26_MPI.PRM
  Tot(13)       22        5     1993    184.6    515.2   1213.1   356.95      0.0    177.7      6.9     14.6      0.0    114.5       50    251.4    195.1       90     0.000     0.000     0.000     0.000      107        0       42       25       12        7        7    13.380       65     40.1    5.368   -9.900     1.47    0.000    0.000       11        9     1993  Maize_short_Cahul_22May_NonOptimum_26_MPI.PRM
  Tot(14)       22        5     1994    229.2    520.8   1387.8   358.63      0.0    210.6     18.6     40.3      0.0    104.3       44    270.1    211.4       90     0.000     0.000     0.000     0.000      107        0       42       25        7        9        8    14.707       63     40.2    5.917   -9.900     1.58    0.000    0.000       11        9     1994  Maize_short_Cahul_22May_NonOptimum_26_MPI.PRM
  Tot(15)       22        5     1995    194.2    524.5   1401.1   360.62      0.0    189.8      4.4      0.3      0.0    116.9       46    243.9    191.4       88     0.000     0.000     0.000     0.000      107        0       42       25        3       13        9    13.202       58     40.3    5.317   -9.900     1.47    0.000    0.000       11        9     1995  Maize_short_Cahul_22May_NonOptimum_26_MPI.PRM
  Tot(16)       22        5     1996    152.9    537.6   1282.2   362.37      0.0    143.3      9.6      0.4      0.0     97.4       31    204.1    164.0       87     0.000     0.000     0.000     0.000      107        0       42       25        9       27        7    11.290       52     40.7    4.595   -9.900     1.52    0.000    0.000       11        9     1996  Maize_short_Cahul_22May_NonOptimum_26_MPI.PRM
  Tot(17)       22        5     1997    432.8    444.0   1221.9   363.47      0.0    383.5     49.3     17.3      0.0    148.6       78    259.9    201.1      100     0.000     0.000     0.000     0.000      107        0       42       25       10        1        0    16.771       75     40.0    6.712   -9.900     1.64    0.000    0.000       11        9     1997  Maize_short_Cahul_22May_NonOptimum_26_MPI.PRM
  Tot(18)       22        5     1998    180.5    509.6   1309.0   366.50      0.0    177.7      2.8      0.0      0.0    130.0       58    239.8    187.2       85     0.000     0.000     0.000     0.000      107        0       42       25        8        8       11    12.334       57     40.0    4.933   -9.900     1.33    0.000    0.000       11        9     1998  Maize_short_Cahul_22May_NonOptimum_26_MPI.PRM
  Tot(19)       22        5     1999    308.1    540.3   1455.6   368.14      0.0    295.8     12.3     14.0      0.0    143.6       56    302.8    234.8       99     0.000     0.000     0.000     0.000      107        0       42       25        3       11        1    16.563       71     40.6    6.733   -9.900     1.51    0.000    0.000       11        9     1999  Maize_short_Cahul_22May_NonOptimum_26_MPI.PRM
  Tot(20)       22        5     2000    130.9    589.8   1344.8   369.41      0.0    120.7     10.2      0.0      0.0     97.4       28    199.7    160.6       79     0.000     0.000     0.000     0.000      107        0       42       25        7       21       16     9.657       43     40.0    3.866   -9.900     1.30    0.000    0.000       11        9     2000  Maize_short_Cahul_22May_NonOptimum_26_MPI.PRM
  Tot(21)       22        5     2001    279.5    543.9   1369.9   371.07      0.0    230.6     48.9     24.2      0.0    149.2       55    207.6    163.4       77     0.000     0.000     0.000     0.000       99        0       42       25        6       18       20    10.009       43     35.9    3.594   -9.900     1.04    0.000    0.000       11        9     2001  Maize_short_Cahul_22May_NonOptimum_26_MPI.PRM
  Tot(22)       22        5     2002    292.1    558.8   1450.8   373.16      0.0    255.3     36.8      0.0      0.0    114.8       41    303.8    237.8      100     0.000     0.000     0.000     0.000      107        0       42       25        4       15        0    16.489       69     40.0    6.597   -9.900     1.58    0.000    0.000       11        9     2002  Maize_short_Cahul_22May_NonOptimum_26_MPI.PRM
  Tot(23)       22        5     2003    116.6    575.5   1394.8   375.80      0.0    116.5      0.1      0.0      0.0    105.7       34    221.9    176.4       82     0.000     0.000     0.000     0.000      107        0       42       25        6       17       16    11.636       52     39.7    4.620   -9.900     1.41    0.000    0.000       11        9     2003  Maize_short_Cahul_22May_NonOptimum_26_MPI.PRM
  Tot(24)       22        5     2004    264.5    517.1   1270.8   377.49      0.0    258.7      5.8      1.7      0.0    127.4       55    294.4    229.1      100     0.000     0.000     0.000     0.000      107        0       42       25        9        6        0    16.498       74     40.2    6.631   -9.900     1.57    0.000    0.000       11        9     2004  Maize_short_Cahul_22May_NonOptimum_26_MPI.PRM
  Tot(25)       22        5     2005    340.5    530.1   1378.5   379.80      0.0    324.9     15.6      7.2      0.0    155.4       67    317.3    243.9      100     0.000     0.000     0.000     0.000      107        0       42       25        5        2        0    17.621       75     40.0    7.054   -9.900     1.49    0.000    0.000       11        9     2005  Maize_short_Cahul_22May_NonOptimum_26_MPI.PRM
  Tot(26)       22        5     2006    165.3    572.9   1356.3   381.90      0.0    162.9      2.4      0.0      0.0    124.3       41    230.5    184.8       82     0.000     0.000     0.000     0.000      107        0       42       25        7       27       12    11.758       51     40.6    4.773   -9.900     1.35    0.000    0.000       11        9     2006  Maize_short_Cahul_22May_NonOptimum_26_MPI.PRM
  Tot(27)       22        5     2007    154.6    656.0   1505.6   383.77      0.0    153.3      1.3      0.0      0.0    127.0       32    225.1    180.5       80     0.000     0.000     0.000     0.000      107        0       42       25        3       31       12    10.407       45     40.5    4.218   -9.900     1.20    0.000    0.000       11        9     2007  Maize_short_Cahul_22May_NonOptimum_26_MPI.PRM
  Tot(28)       22        5     2008    135.9    609.6   1430.9   385.59      0.0    135.2      0.7      0.6      0.0    124.8       39    228.9    182.6       78     0.000     0.000     0.000     0.000      107        0       42       25        3       20       19    10.856       46     39.6    4.304   -9.900     1.22    0.000    0.000       11        9     2008  Maize_short_Cahul_22May_NonOptimum_26_MPI.PRM
  Tot(29)       22        5     2009    193.1    608.5   1428.8   387.37      0.0    186.0      7.1      0.0      0.0    132.2       42    241.1    189.3       81     0.000     0.000     0.000     0.000      107        0       42       25        4       18       16    11.138       47     40.1    4.468   -9.900     1.20    0.000    0.000       11        9     2009  Maize_short_Cahul_22May_NonOptimum_26_MPI.PRM
  Tot(30)       22        5     2010    262.4    544.9   1456.8   389.85      0.0    244.4     18.0     23.9      0.0    128.7       53    284.3    219.8       90     0.000     0.000     0.000     0.000      107        0       42       25        5        4        7    14.944       65     39.8    5.947   -9.900     1.44    0.000    0.000       11        9     2010  Maize_short_Cahul_22May_NonOptimum_26_MPI.PRM
  Tot(31)       22        5     2011    160.8    575.7   1434.7   391.63      0.0    157.7      3.1      5.8      0.0    126.0       47    245.7    193.3       78     0.000     0.000     0.000     0.000      107        0       42       25        3       14       18    12.353       52     39.7    4.908   -9.900     1.32    0.000    0.000       11        9     2011  Maize_short_Cahul_22May_NonOptimum_26_MPI.PRM
  Tot(32)       22        5     2012    196.3    639.5   1494.0   393.82      0.0    189.7      6.6      8.8      0.0    148.0       47    246.7    195.6       76     0.000     0.000     0.000     0.000      107        0       42       25        3       24       19    10.916       46     40.2    4.383   -9.900     1.11    0.000    0.000       11        9     2012  Maize_short_Cahul_22May_NonOptimum_26_MPI.PRM
  Tot(33)       22        5     2013    252.7    563.0   1428.9   396.48      0.0    239.0     13.7     14.7      0.0    144.5       57    275.7    214.5       86     0.000     0.000     0.000     0.000      107        0       42       25        3        8       10    14.229       60     40.0    5.696   -9.900     1.36    0.000    0.000       11        9     2013  Maize_short_Cahul_22May_NonOptimum_26_MPI.PRM
  Tot(34)       22        5     2014    196.3    573.6   1463.6   398.55      0.0    193.6      2.7      4.1      0.0    147.2       60    268.2    210.3       80     0.000     0.000     0.000     0.000      107        0       42       25        3       10       16    13.352       56     39.6    5.286   -9.900     1.27    0.000    0.000       11        9     2014  Maize_short_Cahul_22May_NonOptimum_26_MPI.PRM
  Tot(35)       22        5     2015    138.9    636.7   1471.6   401.00      0.0    136.7      2.2      0.0      0.0    116.3       36    235.7    186.1       74     0.000     0.000     0.000     0.000      107        0       42       25        4       20       19    10.969       46     40.0    4.382   -9.900     1.24    0.000    0.000       11        9     2015  Maize_short_Cahul_22May_NonOptimum_26_MPI.PRM
  Tot(36)       22        5     2016    164.9    587.5   1485.2   403.00      0.0    161.0      3.9      8.4      0.0    156.7       54    214.7    170.5       73     0.000     0.000     0.000     0.000      107        0       42       25        3       24       23    10.192       42     39.8    4.059   -9.900     1.09    0.000    0.000       11        9     2016  Maize_short_Cahul_22May_NonOptimum_26_MPI.PRM
  Tot(37)       22        5     2017    244.3    575.3   1442.4   405.00      0.0    217.3     27.0      1.4      0.0    121.3       49    311.8    241.8       91     0.000     0.000     0.000     0.000      107        0       42       25        3        6        9    15.486       65     39.9    6.181   -9.900     1.43    0.000    0.000       11        9     2017  Maize_short_Cahul_22May_NonOptimum_26_MPI.PRM
  Tot(38)       22        5     2018    162.1    570.8   1538.6   408.00      0.0    157.2      4.9      0.0      0.0     92.0       33    276.7    215.6       87     0.000     0.000     0.000     0.000      107        0       42       25        2        8       10    14.885       62     39.6    5.901   -9.900     1.60    0.000    0.000       11        9     2018  Maize_short_Cahul_22May_NonOptimum_26_MPI.PRM
  Tot(39)       22        5     2019    162.8    617.9   1528.8   410.00      0.0    161.5      1.3      0.0      0.0    164.0       51    219.7    174.0       76     0.000     0.000     0.000     0.000      105        0       42       25        1       20       21    10.909       45     39.4    4.298   -9.900     1.12    0.000    0.000       11        9     2019  Maize_short_Cahul_22May_NonOptimum_26_MPI.PRM
  Tot(40)       22        5     2020    208.8    462.6   1160.1   412.00      0.0    203.5      5.3      0.5      0.0    140.9       75    247.7    192.0       93     0.000     0.000     0.000     0.000      107        0       42       25       14        9        5    14.480       68     40.6    5.878   -9.900     1.51    0.000    0.000       11        9     2020  Maize_short_Cahul_22May_NonOptimum_26_MPI.PRM
  Tot(41)       22        5     2021    131.0    481.0   1158.0   414.00      0.0    126.0      5.0      0.0      0.0     78.3       37    253.9    197.5       94     0.000     0.000     0.000     0.000      107        0       42       25       14        8        5    15.366       68     40.1    6.159   -9.900     1.85    0.000    0.000       11        9     2021  Maize_short_Cahul_22May_NonOptimum_26_MPI.PRM
  Tot(42)       22        5     2022    179.1    498.4   1153.7   417.00      0.0    165.8     13.3     19.5      0.0    130.8       63    223.0    174.9       80     0.000     0.000     0.000     0.000      107        0       42       25       15       15       15    11.779       53     40.3    4.750   -9.900     1.34    0.000    0.000       11        9     2022  Maize_short_Cahul_22May_NonOptimum_26_MPI.PRM
  Tot(43)       22        5     2023     97.3    577.4   1352.6   419.00      0.0     97.3      0.0      0.0      0.0    106.5       34    205.2    164.0       78     0.000     0.000     0.000     0.000      107        0       42       25        6       27       18    10.463       46     40.4    4.222   -9.900     1.35    0.000    0.000       11        9     2023  Maize_short_Cahul_22May_NonOptimum_26_MPI.PRM
  Tot(44)       22        5     2024    166.3    501.9   1173.9   421.00      0.0    166.0      0.3      0.0      0.0     97.2       42    264.4    204.7       96     0.000     0.000     0.000     0.000      107        0       42       25       12        7        3    15.567       70     40.2    6.258   -9.900     1.73    0.000    0.000       11        9     2024  Maize_short_Cahul_22May_NonOptimum_26_MPI.PRM
  Tot(45)       22        5     2025    187.7    499.1   1248.0   423.00      0.0    172.5     15.2     33.8      0.0    102.7       40    221.9    176.2       89     0.000     0.000     0.000     0.000      107        0       42       25        9       18        7    13.608       60     40.4    5.496   -9.900     1.69    0.000    0.000       11        9     2025  Maize_short_Cahul_22May_NonOptimum_26_MPI.PRM
  Tot(46)       22        5     2026    145.8    543.1   1199.5   424.00      0.0    143.9      1.9      0.0      0.0     95.5       40    254.7    197.1       85     0.000     0.000     0.000     0.000      107        0       42       25       12        8       11    13.554       60     39.7    5.377   -9.900     1.54    0.000    0.000       11        9     2026  Maize_short_Cahul_22May_NonOptimum_26_MPI.PRM
  Tot(47)       22        5     2027    171.2    461.5   1141.8   426.00      0.0    162.0      9.2      9.9      0.0     96.4       49    247.4    192.3       94     0.000     0.000     0.000     0.000      107        0       42       25       14        6        5    15.212       68     40.1    6.095   -9.900     1.77    0.000    0.000       11        9     2027  Maize_short_Cahul_22May_NonOptimum_26_MPI.PRM
  Tot(48)       22        5     2028    240.0    426.6   1032.7   428.00      0.0    222.3     17.7     22.0      0.0     94.0       54    236.3    183.2      100     0.000     0.000     0.000     0.000      107        0       42       25       18        1        0    15.792       75     40.0    6.317   -9.900     1.91    0.000    0.000       11        9     2028  Maize_short_Cahul_22May_NonOptimum_26_MPI.PRM
  Tot(49)       22        5     2029    181.9    453.1   1127.6   429.00      0.0    175.2      6.7      9.1      0.0     93.9       53    260.2    200.4       97     0.000     0.000     0.000     0.000      107        0       42       25       16        2        2    15.579       72     40.1    6.244   -9.900     1.76    0.000    0.000       11        9     2029  Maize_short_Cahul_22May_NonOptimum_26_MPI.PRM
  Tot(50)       22        5     2030    121.7    551.7   1247.5   431.00      0.0    120.1      1.6      5.3      0.0    106.1       39    202.6    161.0       77     0.000     0.000     0.000     0.000       97        0       42       25        8       20       20     9.897       43     33.7    3.336   -9.900     1.09    0.000    0.000       11        9     2030  Maize_short_Cahul_22May_NonOptimum_26_MPI.PRM
  Tot(51)       22        5     2031    173.1    496.5   1225.1   432.00      0.0    172.2      0.9      0.0      0.0    100.3       41    251.8    195.9      100     0.000     0.000     0.000     0.000      107        0       42       25       11        7        0    15.830       73     40.2    6.361   -9.900     1.81    0.000    0.000       11        9     2031  Maize_short_Cahul_22May_NonOptimum_26_MPI.PRM
  Tot(52)       22        5     2032    138.3    484.2   1128.2   433.00      0.0    135.6      2.7      1.1      0.0    115.1       57    236.1    183.4       87     0.000     0.000     0.000     0.000      107        0       42       25       14        7       10    13.984       64     40.0    5.597   -9.900     1.59    0.000    0.000       11        9     2032  Maize_short_Cahul_22May_NonOptimum_26_MPI.PRM
  Tot(53)       22        5     2033    280.2    452.6   1098.3   435.00      0.0    226.6     53.6     37.7      0.0     97.4       47    231.3    179.1      100     0.000     0.000     0.000     0.000      107        0       42       25       17        3        0    15.588       74     40.0    6.241   -9.900     1.90    0.000    0.000       11        9     2033  Maize_short_Cahul_22May_NonOptimum_26_MPI.PRM
  Tot(54)       22        5     2034    198.8    519.8   1253.0   436.00      0.0    192.5      6.3      0.0      0.0    110.7       44    250.7    196.4       92     0.000     0.000     0.000     0.000      107        0       42       25       11       14        5    14.645       64     40.4    5.919   -9.900     1.64    0.000    0.000       11        9     2034  Maize_short_Cahul_22May_NonOptimum_26_MPI.PRM
  Tot(55)       22        5     2035    203.9    494.4   1185.1   437.00      0.0    187.7     16.2      0.0      0.0    104.1       47    234.0    183.6       87     0.000     0.000     0.000     0.000      107        0       42       25       14        9        9    13.518       61     39.9    5.394   -9.900     1.60    0.000    0.000       11        9     2035  Maize_short_Cahul_22May_NonOptimum_26_MPI.PRM
  Tot(56)       22        5     2036    195.4    475.8   1223.9   438.00      0.0    190.2      5.2      5.9      0.0    107.3       49    259.5    200.3       99     0.000     0.000     0.000     0.000      107        0       42       25        8        7        0    16.629       73     40.1    6.676   -9.900     1.82    0.000    0.000       11        9     2036  Maize_short_Cahul_22May_NonOptimum_26_MPI.PRM
  Tot(57)       22        5     2037    235.7    448.6   1092.6   438.00      0.0    214.4     21.3     17.8      0.0     99.4       48    238.6    184.9      100     0.000     0.000     0.000     0.000      107        0       42       25       17        4        0    16.064       74     40.1    6.442   -9.900     1.91    0.000    0.000       11        9     2037  Maize_short_Cahul_22May_NonOptimum_26_MPI.PRM
  Tot(58)       22        5     2038    156.9    502.4   1216.0   439.00      0.0    152.3      4.6      0.0      0.0     73.1       31    266.2    209.2       99     0.000     0.000     0.000     0.000      107        0       42       25       12        9        1    15.820       71     40.1    6.339   -9.900     1.87    0.000    0.000       11        9     2038  Maize_short_Cahul_22May_NonOptimum_26_MPI.PRM
  Tot(59)       22        5     2039    119.6    548.4   1198.9   440.00      0.0    113.2      6.4      0.0      0.0     93.1       33    215.3    171.0       83     0.000     0.000     0.000     0.000      107        0       42       25       12       27       11    11.131       50     40.7    4.527   -9.900     1.47    0.000    0.000       11        9     2039  Maize_short_Cahul_22May_NonOptimum_26_MPI.PRM
  Tot(60)       22        5     2040    100.2    550.3   1231.7   440.00      0.0     92.9      7.3     19.8      0.0    100.4       34    184.8    146.5       78     0.000     0.000     0.000     0.000       99        0       42       25       11       20       19     9.703       41     36.0    3.494   -9.900     1.23    0.000    0.000       11        9     2040  Maize_short_Cahul_22May_NonOptimum_26_MPI.PRM
  Tot(61)       22        5     2041    205.4    566.4   1226.1   441.00      0.0    194.0     11.4     13.7      0.0    148.6       52    200.3    157.7       76     0.000     0.000     0.000     0.000      107        0       42       25       11       20       19     9.456       40     32.9    3.115   -9.900     0.89    0.000    0.000       11        9     2041  Maize_short_Cahul_22May_NonOptimum_26_MPI.PRM
  Tot(62)       22        5     2042    198.1    476.2   1197.1   441.00      0.0    180.6     17.5      0.0      0.0     97.4       43    243.0    188.1       97     0.000     0.000     0.000     0.000      107        0       42       25       11       13        1    15.754       70     40.5    6.386   -9.900     1.88    0.000    0.000       11        9     2042  Maize_short_Cahul_22May_NonOptimum_26_MPI.PRM
  Tot(63)       22        5     2043    187.0    477.4   1111.8   441.00      0.0    162.1     24.9     28.5      0.0    108.3       52    234.7    183.4       90     0.000     0.000     0.000     0.000      107        0       42       25       16        5       10    14.201       64     40.0    5.677   -9.900     1.65    0.000    0.000       11        9     2043  Maize_short_Cahul_22May_NonOptimum_26_MPI.PRM
  Tot(64)       22        5     2044    322.1    426.2   1098.4   442.00      0.0    297.6     24.5      3.1      0.0     88.8       43    214.7    167.4      100     0.000     0.000     0.000     0.000      107        0       42       25       18        5        0    15.279       73     40.1    6.126   -9.900     2.02    0.000    0.000       11        9     2044  Maize_short_Cahul_22May_NonOptimum_26_MPI.PRM
  Tot(65)       22        5     2045    211.6    449.0   1166.5   442.00      0.0    198.8     12.8     20.3      0.0    102.2       54    256.8    197.6      100     0.000     0.000     0.000     0.000      107        0       42       25       12        2        0    16.751       75     40.0    6.707   -9.900     1.87    0.000    0.000       11        9     2045  Maize_short_Cahul_22May_NonOptimum_26_MPI.PRM
  Tot(66)       22        5     2046    127.7    451.5   1169.6   442.00      0.0    127.2      0.5      0.4      0.0     82.5       43    247.9    194.5       96     0.000     0.000     0.000     0.000      107        0       42       25       11        8        4    15.968       70     40.2    6.413   -9.900     1.94    0.000    0.000       11        9     2046  Maize_short_Cahul_22May_NonOptimum_26_MPI.PRM
  Tot(67)       22        5     2047    149.5    471.2   1215.4   442.00      0.0    145.4      4.1      0.0      0.0     98.2       51    260.5    202.4       92     0.000     0.000     0.000     0.000      107        0       42       25        9        8        6    15.804       67     40.1    6.334   -9.900     1.77    0.000    0.000       11        9     2047  Maize_short_Cahul_22May_NonOptimum_26_MPI.PRM
  Tot(68)       22        5     2048    231.7    480.8   1210.4   442.00      0.0    217.3     14.4     10.6      0.0    116.9       54    267.9    206.8      100     0.000     0.000     0.000     0.000      107        0       42       25        9        7        0    17.037       74     40.4    6.877   -9.900     1.79    0.000    0.000       11        9     2048  Maize_short_Cahul_22May_NonOptimum_26_MPI.PRM
  Tot(69)       22        5     2049    151.0    556.7   1217.1   443.00      0.0    147.4      3.6      8.7      0.0    109.5       41    234.6    185.4       82     0.000     0.000     0.000     0.000      107        0       42       25       10       21       13    12.277       55     40.6    4.987   -9.900     1.45    0.000    0.000       11        9     2049  Maize_short_Cahul_22May_NonOptimum_26_MPI.PRM
  Tot(70)       22        5     2050    173.4    477.8   1133.8   443.00      0.0    170.2      3.2      0.0      0.0    105.2       50    252.7    196.4       98     0.000     0.000     0.000     0.000      107        0       42       25       16        7        2    15.037       72     40.3    6.059   -9.900     1.69    0.000    0.000       11        9     2050  Maize_short_Cahul_22May_NonOptimum_26_MPI.PRM
  Tot(71)       22        5     2051    151.2    490.8   1170.8   443.00      0.0    147.7      3.5      1.2      0.0    113.6       52    238.2    185.4       89     0.000     0.000     0.000     0.000      107        0       42       25       11       10        9    14.132       62     40.2    5.674   -9.900     1.61    0.000    0.000       11        9     2051  Maize_short_Cahul_22May_NonOptimum_26_MPI.PRM
  Tot(72)       22        5     2052    145.4    475.0   1170.0   443.00      0.0    144.6      0.8      0.0      0.0     78.2       31    218.2    171.4      100     0.000     0.000     0.000     0.000      107        0       42       25       13       17        0    14.895       70     40.6    6.046   -9.900     2.04    0.000    0.000       11        9     2052  Maize_short_Cahul_22May_NonOptimum_26_MPI.PRM
  Tot(73)       22        5     2053    142.9    480.3   1134.2   443.00      0.0    132.9     10.0     26.1      0.0     69.9       36    244.8    190.8       89     0.000     0.000     0.000     0.000      107        0       42       25       14        5        9    14.424       65     39.8    5.746   -9.900     1.83    0.000    0.000       11        9     2053  Maize_short_Cahul_22May_NonOptimum_26_MPI.PRM
  Tot(74)       22        5     2054    176.5    512.3   1203.7   443.00      0.0    174.1      2.4      0.0      0.0    106.3       46    271.2    210.6       95     0.000     0.000     0.000     0.000      107        0       42       25       10        5        4    16.095       70     40.0    6.446   -9.900     1.71    0.000    0.000       11        9     2054  Maize_short_Cahul_22May_NonOptimum_26_MPI.PRM
  Tot(75)       22        5     2055    124.4    539.8   1220.6   443.00      0.0    124.3      0.1      0.0      0.0    102.4       39    231.1    182.9       85     0.000     0.000     0.000     0.000      107        0       42       25       14       23       11    12.300       54     40.5    4.978   -9.900     1.49    0.000    0.000       11        9     2055  Maize_short_Cahul_22May_NonOptimum_26_MPI.PRM
  Tot(76)       22        5     2056    123.9    508.1   1214.7   442.00      0.0    122.2      1.7      5.0      0.0    113.3       52    226.5    178.1       81     0.000     0.000     0.000     0.000      107        0       42       25       10       17       17    12.627       53     39.8    5.027   -9.900     1.48    0.000    0.000       11        9     2056  Maize_short_Cahul_22May_NonOptimum_26_MPI.PRM
  Tot(77)       22        5     2057    131.7    511.6   1224.3   442.00      0.0    129.8      1.9      0.0      0.0     96.7       43    246.6    190.7       88     0.000     0.000     0.000     0.000      107        0       42       25        9        6        8    14.499       64     39.9    5.780   -9.900     1.68    0.000    0.000       11        9     2057  Maize_short_Cahul_22May_NonOptimum_26_MPI.PRM
  Tot(78)       22        5     2058    133.1    586.5   1317.6   442.00      0.0    131.1      2.0      0.0      0.0     77.3       23    227.3    181.7       89     0.000     0.000     0.000     0.000      107        0       42       25        8       21        8    12.385       55     40.4    5.000   -9.900     1.64    0.000    0.000       11        9     2058  Maize_short_Cahul_22May_NonOptimum_26_MPI.PRM
  Tot(79)       22        5     2059    322.9    470.5   1224.4   442.00      0.0    254.1     68.8      3.3      0.0     90.2       40    248.6    192.5      100     0.000     0.000     0.000     0.000      107        0       42       25       11        7        0    16.140       73     40.3    6.505   -9.900     1.92    0.000    0.000       11        9     2059  Maize_short_Cahul_22May_NonOptimum_26_MPI.PRM
  Tot(80)       22        5     2060    146.8    468.1   1252.0   442.00      0.0    141.4      5.4      7.1      0.0    102.7       55    240.9    187.1       86     0.000     0.000     0.000     0.000      107        0       42       25       10        6        9    14.564       62     40.2    5.849   -9.900     1.70    0.000    0.000       11        9     2060  Maize_short_Cahul_22May_NonOptimum_26_MPI.PRM
  Tot(81)       22        5     2061    228.3    500.0   1236.2   441.00      0.0    192.7     35.6     41.1      0.0    103.1       44    257.6    202.7       94     0.000     0.000     0.000     0.000      107        0       42       25        8       15        6    15.505       66     40.4    6.258   -9.900     1.74    0.000    0.000       11        9     2061  Maize_short_Cahul_22May_NonOptimum_26_MPI.PRM
  Tot(82)       22        5     2062    154.0    416.4   1008.4   441.00      0.0    153.6      0.4      0.0      0.0     97.5       56    221.4    171.8      100     0.000     0.000     0.000     0.000      107        0       42       25       19        2        0    15.150       75     40.0    6.067   -9.900     1.90    0.000    0.000       11        9     2062  Maize_short_Cahul_22May_NonOptimum_26_MPI.PRM
  Tot(83)       22        5     2063    183.8    509.5   1253.2   441.00      0.0    175.6      8.2      0.0      0.0     95.8       40    271.6    210.8       98     0.000     0.000     0.000     0.000      107        0       42       25       10       10        2    16.274       71     40.4    6.569   -9.900     1.79    0.000    0.000       11        9     2063  Maize_short_Cahul_22May_NonOptimum_26_MPI.PRM
  Tot(84)       22        5     2064    183.5    490.8   1202.7   440.00      0.0    172.2     11.3     13.1      0.0    109.3       50    253.2    196.8       91     0.000     0.000     0.000     0.000      107        0       42       25       11        9        6    15.587       66     40.3    6.276   -9.900     1.73    0.000    0.000       11        9     2064  Maize_short_Cahul_22May_NonOptimum_26_MPI.PRM
  Tot(85)       22        5     2065    332.2    409.3   1072.6   440.00      0.0    264.5     67.7      0.0      0.0     93.9       47    203.6    159.0      100     0.000     0.000     0.000     0.000      107        0       42       25       19        2        0    15.564       75     40.0    6.226   -9.900     2.09    0.000    0.000       11        9     2065  Maize_short_Cahul_22May_NonOptimum_26_MPI.PRM
  Tot(86)       22        5     2066    220.5    475.4   1139.5   440.00      0.0    208.6     11.9      0.0      0.0     91.1       44    259.8    202.5       99     0.000     0.000     0.000     0.000      107        0       42       25       12        3        1    16.322       73     40.0    6.530   -9.900     1.86    0.000    0.000       11        9     2066  Maize_short_Cahul_22May_NonOptimum_26_MPI.PRM
  Tot(87)       22        5     2067    244.4    401.7    983.5   439.00      0.0    217.4     27.0      0.0      0.0     81.7       45    198.6    153.6      100     0.000     0.000     0.000     0.000      107        0       42       25       21        5        0    14.803       74     40.2    5.949   -9.900     2.12    0.000    0.000       11        9     2067  Maize_short_Cahul_22May_NonOptimum_26_MPI.PRM
  Tot(88)       22        5     2068    207.4    438.2   1053.1   439.00      0.0    190.8     16.6     27.1      0.0    115.3       68    235.6    183.4       96     0.000     0.000     0.000     0.000      107        0       42       25       21       11        3    13.784       71     40.4    5.575   -9.900     1.59    0.000    0.000       11        9     2068  Maize_short_Cahul_22May_NonOptimum_26_MPI.PRM
  Tot(89)       22        5     2069    217.1    476.5   1244.9   438.00      0.0    210.5      6.6      0.0      0.0    108.3       50    261.2    201.8      100     0.000     0.000     0.000     0.000      107        0       42       25        9        5        0    16.716       73     40.0    6.690   -9.900     1.81    0.000    0.000       11        9     2069  Maize_short_Cahul_22May_NonOptimum_26_MPI.PRM
  Tot(90)       22        5     2070    123.0    517.5   1227.0   437.00      0.0    122.7      0.3      0.0      0.0     95.5       36    231.6    184.4       91     0.000     0.000     0.000     0.000      107        0       42       25       12       20        9    13.274       61     40.7    5.401   -9.900     1.65    0.000    0.000       11        9     2070  Maize_short_Cahul_22May_NonOptimum_26_MPI.PRM
  Tot(91)       22        5     2071    189.5    536.9   1282.4   437.00      0.0    178.0     11.5     13.7      0.0    130.6       53    242.5    190.2       83     0.000     0.000     0.000     0.000      107        0       42       25        8       17       12    13.466       57     40.6    5.461   -9.900     1.46    0.000    0.000       11        9     2071  Maize_short_Cahul_22May_NonOptimum_26_MPI.PRM
  Tot(92)       22        5     2072    158.5    541.3   1311.3   436.00      0.0    158.0      0.5      0.0      0.0    140.8       56    227.1    178.4       81     0.000     0.000     0.000     0.000      107        0       42       25        5       13       15    12.020       51     40.1    4.821   -9.900     1.31    0.000    0.000       11        9     2072  Maize_short_Cahul_22May_NonOptimum_26_MPI.PRM
  Tot(93)       22        5     2073    200.1    523.8   1214.3   436.00      0.0    149.2     50.9     23.9      0.0     89.5       37    237.1    184.2       86     0.000     0.000     0.000     0.000      107        0       42       25       13       10       13    12.829       57     39.9    5.125   -9.900     1.57    0.000    0.000       11        9     2073  Maize_short_Cahul_22May_NonOptimum_26_MPI.PRM
  Tot(94)       22        5     2074    178.1    475.5   1202.7   435.00      0.0    174.7      3.4      0.6      0.0     99.2       42    228.8    179.5       96     0.000     0.000     0.000     0.000      107        0       42       25       13       16        2    14.426       69     40.8    5.887   -9.900     1.79    0.000    0.000       11        9     2074  Maize_short_Cahul_22May_NonOptimum_26_MPI.PRM
  Tot(95)       22        5     2075    211.1    500.0   1234.7   435.00      0.0    202.7      8.4      0.2      0.0     82.4       37    276.6    213.1      100     0.000     0.000     0.000     0.000      107        0       42       25        9        4        0    16.580       73     40.0    6.634   -9.900     1.85    0.000    0.000       11        9     2075  Maize_short_Cahul_22May_NonOptimum_26_MPI.PRM
  Tot(96)       22        5     2076    194.4    546.3   1301.4   434.00      0.0    176.7     17.7      0.0      0.0     92.2       34    278.7    220.2       98     0.000     0.000     0.000     0.000      107        0       42       25        9       11        2    15.879       69     40.1    6.362   -9.900     1.72    0.000    0.000       11        9     2076  Maize_short_Cahul_22May_NonOptimum_26_MPI.PRM
  Tot(97)       22        5     2077    134.7    556.9   1285.0   433.00      0.0    132.0      2.7      0.9      0.0    112.3       41    231.9    182.3       82     0.000     0.000     0.000     0.000      107        0       42       25        8       17       14    12.488       54     40.2    5.021   -9.900     1.46    0.000    0.000       11        9     2077  Maize_short_Cahul_22May_NonOptimum_26_MPI.PRM
  Tot(98)       22        5     2078    124.7    495.0   1229.0   433.00      0.0    123.3      1.4      0.0      0.0     84.6       39    252.8    197.5       90     0.000     0.000     0.000     0.000      107        0       42       25       10       17        8    14.720       64     40.6    5.971   -9.900     1.77    0.000    0.000       11        9     2078  Maize_short_Cahul_22May_NonOptimum_26_MPI.PRM
  Tot(99)       22        5     2079    191.6    434.5   1083.1   432.00      0.0    183.4      8.2     13.7      0.0    121.9       69    226.1    175.2       91     0.000     0.000     0.000     0.000      107        0       42       25       14        6        6    14.854       67     40.2    5.972   -9.900     1.72    0.000    0.000       11        9     2079  Maize_short_Cahul_22May_NonOptimum_26_MPI.PRM
 Tot(100)       22        5     2080    158.0    503.4   1183.2   432.00      0.0    154.3      3.7      0.0      0.0     99.3       46    253.4    196.5       88     0.000     0.000     0.000     0.000      107        0       42       25       13        6        8    14.538       64     40.0    5.811   -9.900     1.65    0.000    0.000       11        9     2080  Maize_short_Cahul_22May_NonOptimum_26_MPI.PRM
 Tot(101)       22        5     2081    236.6    456.8   1195.0   431.00      0.0    215.1     21.5     56.2      0.0    117.9       63    242.8    188.3       92     0.000     0.000     0.000     0.000      107        0       42       25       13       10        6    14.730       65     40.4    5.954   -9.900     1.65    0.000    0.000       11        9     2081  Maize_short_Cahul_22May_NonOptimum_26_MPI.PRM
 Tot(102)       22        5     2082    135.3    508.2   1202.9   431.00      0.0    124.3     11.0      0.8      0.0     94.3       40    218.1    172.3       82     0.000     0.000     0.000     0.000      107        0       42       25       11       17       11    12.348       53     40.5    4.996   -9.900     1.60    0.000    0.000       11        9     2082  Maize_short_Cahul_22May_NonOptimum_26_MPI.PRM
 Tot(103)       22        5     2083    118.5    520.2   1211.9   430.00      0.0    118.2      0.3      0.0      0.0     95.4       41    238.8    186.5       86     0.000     0.000     0.000     0.000      107        0       42       25        9       10       13    13.186       59     40.0    5.281   -9.900     1.58    0.000    0.000       11        9     2083  Maize_short_Cahul_22May_NonOptimum_26_MPI.PRM
 Tot(104)       22        5     2084    251.4    478.0   1183.7   429.00      0.0    233.1     18.3     12.2      0.0    104.5       51    270.0    208.5       98     0.000     0.000     0.000     0.000      107        0       42       25       13        4        1    15.986       72     40.1    6.416   -9.900     1.71    0.000    0.000       11        9     2084  Maize_short_Cahul_22May_NonOptimum_26_MPI.PRM
 Tot(105)       22        5     2085    157.8    470.2   1113.1   429.00      0.0    156.4      1.4      0.0      0.0     71.2       31    234.1    182.0      100     0.000     0.000     0.000     0.000      107        0       42       25       16        5        0    15.264       73     40.1    6.116   -9.900     2.00    0.000    0.000       11        9     2085  Maize_short_Cahul_22May_NonOptimum_26_MPI.PRM
 Tot(106)       22        5     2086    227.0    453.6   1195.7   428.00      0.0    202.4     24.6     59.9      0.0    117.6       68    237.3    184.6       87     0.000     0.000     0.000     0.000      107        0       42       25       11        5       12    13.819       62     39.9    5.510   -9.900     1.55    0.000    0.000       11        9     2086  Maize_short_Cahul_22May_NonOptimum_26_MPI.PRM
 Tot(107)       22        5     2087    207.1    503.3   1226.7   428.00      0.0    200.7      6.4      3.1      0.0    141.0       60    261.3    203.1       95     0.000     0.000     0.000     0.000      107        0       42       25       11        8        4    15.767       70     40.1    6.316   -9.900     1.57    0.000    0.000       11        9     2087  Maize_short_Cahul_22May_NonOptimum_26_MPI.PRM
 Tot(108)       22        5     2088    133.5    572.8   1367.5   427.00      0.0    122.1     11.4     19.3      0.0    106.1       38    219.7    172.8       78     0.000     0.000     0.000     0.000      106        0       42       25        5       10       19    11.749       50     39.2    4.600   -9.900     1.41    0.000    0.000       11        9     2088  Maize_short_Cahul_22May_NonOptimum_26_MPI.PRM
 Tot(109)       22        5     2089    243.3    433.3   1064.9   427.00      0.0    232.2     11.1     15.7      0.0    120.2       73    255.5    197.5      100     0.000     0.000     0.000     0.000      107        0       42       25       21        1        0    15.918       75     40.0    6.374   -9.900     1.70    0.000    0.000       11        9     2089  Maize_short_Cahul_22May_NonOptimum_26_MPI.PRM
 Tot(110)       22        5     2090    174.2    486.5   1150.4   426.00      0.0    173.1      1.1      0.0      0.0     81.7       36    253.5    196.6      100     0.000     0.000     0.000     0.000      107        0       42       25       14        5        0    15.342       73     40.1    6.156   -9.900     1.84    0.000    0.000       11        9     2090  Maize_short_Cahul_22May_NonOptimum_26_MPI.PRM
 Tot(111)       22        5     2091    134.2    556.3   1363.6   425.00      0.0    133.6      0.6      0.0      0.0    122.8       44    216.4    171.1       79     0.000     0.000     0.000     0.000      107        0       42       25        4       17       16    11.300       47     39.6    4.473   -9.900     1.32    0.000    0.000       11        9     2091  Maize_short_Cahul_22May_NonOptimum_26_MPI.PRM
 Tot(112)       22        5     2092    226.7    434.2   1065.7   425.00      0.0    217.9      8.8      5.5      0.0    117.8       59    224.4    175.2      100     0.000     0.000     0.000     0.000      107        0       42       25       18       13        0    14.992       73     40.4    6.061   -9.900     1.77    0.000    0.000       11        9     2092  Maize_short_Cahul_22May_NonOptimum_26_MPI.PRM
 Tot(113)       22        5     2093    279.6    439.1   1107.2   424.00      0.0    262.0     17.6      2.1      0.0     99.3       56    256.2    198.5      100     0.000     0.000     0.000     0.000      107        0       42       25       14        3        0    16.070       75     40.1    6.441   -9.900     1.81    0.000    0.000       11        9     2093  Maize_short_Cahul_22May_NonOptimum_26_MPI.PRM
 Tot(114)       22        5     2094    128.2    585.2   1370.5   424.00      0.0    125.6      2.6      0.0      0.0     96.3       34    237.1    187.1       78     0.000     0.000     0.000     0.000      107        0       42       25        6       20       16    11.699       49     40.3    4.710   -9.900     1.41    0.000    0.000       11        9     2094  Maize_short_Cahul_22May_NonOptimum_26_MPI.PRM
 Tot(115)       22        5     2095    119.8    541.1   1248.0   423.00      0.0    117.9      1.9      4.0      0.0    116.1       38    194.5    155.6       83     0.000     0.000     0.000     0.000      107        0       42       25        9       26       16    10.177       46     40.4    4.114   -9.900     1.32    0.000    0.000       11        9     2095  Maize_short_Cahul_22May_NonOptimum_26_MPI.PRM
 Tot(116)       22        5     2096    104.3    590.1   1352.3   423.00      0.0    103.3      1.0      0.0      0.0     96.8       32    213.9    169.1       76     0.000     0.000     0.000     0.000      107        0       42       25        6       21       17    10.515       44     40.1    4.220   -9.900     1.36    0.000    0.000       11        9     2096  Maize_short_Cahul_22May_NonOptimum_26_MPI.PRM
 Tot(117)       22        5     2097    201.7    454.5   1167.7   422.00      0.0    191.9      9.8      4.4      0.0    112.2       67    259.5    200.2       92     0.000     0.000     0.000     0.000      107        0       42       25       14        6        5    15.174       67     40.3    6.113   -9.900     1.64    0.000    0.000       11        9     2097  Maize_short_Cahul_22May_NonOptimum_26_MPI.PRM
 Tot(118)       22        5     2098    165.8    471.2   1154.2   422.00      0.0    162.6      3.2      6.5      0.0    104.2       50    250.4    195.2       98     0.000     0.000     0.000     0.000      107        0       42       25       13        6        2    15.540       72     40.2    6.239   -9.900     1.76    0.000    0.000       11        9     2098  Maize_short_Cahul_22May_NonOptimum_26_MPI.PRM
 Tot(119)       22        5     2099    171.1    460.3   1032.6   421.00      0.0    169.3      1.8      0.0      0.0    101.2       51    242.2    187.9      100     0.000     0.000     0.000     0.000      107        0       42       25       20        3        0    15.230       74     40.1    6.112   -9.900     1.78    0.000    0.000       11        9     2099  Maize_short_Cahul_22May_NonOptimum_26_MPI.PRM
