AquaCrop 7.0 (August 2022) - Output created on (date) : 23-11-2022   at (time) : 17:45:58

    RunNr     Day1   Month1    Year1     Rain      ETo       GD     CO2      Irri   Infilt   Runoff    Drain   Upflow        E     E/Ex       Tr      TrW   Tr/Trx    SaltIn   SaltOut    SaltUp  SaltProf     Cycle   SaltStr  FertStr  WeedStr  TempStr   ExpStr   StoStr  BioMass  Brelative   HI    Y(dry)  Y(fresh)    WPet      Bin     Bout     DayN   MonthN    YearN
                                           mm       mm  degC.day    ppm        mm       mm       mm       mm       mm       mm        %       mm       mm        %    ton/ha    ton/ha    ton/ha    ton/ha      days       %        %        %        %        %        %    ton/ha        %       %    ton/ha   ton/ha    kg/m3   ton/ha   ton/ha
   Tot(1)        6        6     1981    323.6    420.3   1169.7   340.11      0.0    268.1     55.5     55.9      0.0    129.2       64    209.4    207.8      100     0.000     0.000     0.000     0.000      107        0        0        0       19        7        0    17.556       96     40.4    7.090   -9.900     2.09    0.000    0.000       26        9     1981  Maize_Short_Soroca_6June_Optimum_85_MPI.PRM
   Tot(2)        6        6     1982    276.8    416.0   1171.0   341.22      0.0    237.3     39.5     48.6      0.0    148.1       82    232.7    233.7       97     0.000     0.000     0.000     0.000      107        0        0        0       12        3        3    19.968       93     40.2    8.020   -9.900     2.11    0.000    0.000       26        9     1982  Maize_Short_Soroca_6June_Optimum_85_MPI.PRM
   Tot(3)        6        6     1983    213.6    428.2   1169.7   342.84      0.0    208.8      4.8      6.9      0.0    121.7       64    228.0    228.3      100     0.000     0.000     0.000     0.000      107        0        0        0       13        1        0    19.517       97     40.0    7.809   -9.900     2.23    0.000    0.000       26        9     1983  Maize_Short_Soroca_6June_Optimum_85_MPI.PRM
   Tot(4)        6        6     1984    282.0    406.7   1061.7   344.40      0.0    268.3     13.7     12.2      0.0    154.8       87    216.6    215.2      100     0.000     0.000     0.000     0.000      107        0        0        0       20        1        0    19.322       98     40.1    7.745   -9.900     2.09    0.000    0.000       26        9     1984  Maize_Short_Soroca_6June_Optimum_85_MPI.PRM
   Tot(5)        6        6     1985    357.2    428.1   1082.1   345.87      0.0    308.6     48.6     56.8      0.0    145.6       82    232.9    234.3      100     0.000     0.000     0.000     0.000      107        0        0        0       23        2        1    17.888       97     40.1    7.165   -9.900     1.89    0.000    0.000       26        9     1985  Maize_Short_Soroca_6June_Optimum_85_MPI.PRM
   Tot(6)        6        6     1986    147.6    489.6   1212.2   347.19      0.0    146.7      0.9      0.0      0.0    114.5       49    234.2    234.2       96     0.000     0.000     0.000     0.000      107        0        0        0       17        9        5    17.133       89     40.4    6.915   -9.900     1.98    0.000    0.000       26        9     1986  Maize_Short_Soroca_6June_Optimum_85_MPI.PRM
   Tot(7)        6        6     1987    211.9    451.8   1159.6   348.98      0.0    206.3      5.6      6.4      0.0    114.2       50    205.0    203.2      100     0.000     0.000     0.000     0.000      107        0        0        0       17        6        0    17.270       94     40.0    6.911   -9.900     2.16    0.000    0.000       26        9     1987  Maize_Short_Soroca_6June_Optimum_85_MPI.PRM
   Tot(8)        6        6     1988    248.1    413.1   1202.7   351.45      0.0    238.8      9.3     15.2      0.0    134.4       71    218.9    219.6      100     0.000     0.000     0.000     0.000      107        0        0        0       16        3        0    18.766       97     40.2    7.542   -9.900     2.13    0.000    0.000       26        9     1988  Maize_Short_Soroca_6June_Optimum_85_MPI.PRM
   Tot(9)        6        6     1989    414.3    403.4   1141.8   352.89      0.0    339.5     74.8     37.5      0.0    122.6       65    206.5    206.1      100     0.000     0.000     0.000     0.000      107        0        0        0       16        2        0    18.599       97     40.0    7.445   -9.900     2.26    0.000    0.000       26        9     1989  Maize_Short_Soroca_6June_Optimum_85_MPI.PRM
  Tot(10)        6        6     1990    176.4    440.5   1094.6   354.16      0.0    167.9      8.5     13.1      0.0    123.5       60    210.7    211.7       98     0.000     0.000     0.000     0.000      107        0        0        0       20       12        2    16.365       91     40.6    6.645   -9.900     1.99    0.000    0.000       26        9     1990  Maize_Short_Soroca_6June_Optimum_85_MPI.PRM
  Tot(11)        6        6     1991    371.0    403.5   1213.4   355.48      0.0    322.1     48.9     40.9      0.0    147.2       75    199.8    198.0      100     0.000     0.000     0.000     0.000      107        0        0        0       13        0        0    19.176       97     40.0    7.670   -9.900     2.21    0.000    0.000       26        9     1991  Maize_Short_Soroca_6June_Optimum_85_MPI.PRM
  Tot(12)        6        6     1992    153.8    498.8   1261.7   356.27      0.0    153.4      0.4      0.0      0.0    126.9       53    219.7    221.8       85     0.000     0.000     0.000     0.000      107        0        0        0       15       19        8    14.630       75     40.6    5.936   -9.900     1.71    0.000    0.000       26        9     1992  Maize_Short_Soroca_6June_Optimum_85_MPI.PRM
  Tot(13)        6        6     1993    276.6    430.4   1056.4   356.95      0.0    234.0     42.6      0.0      0.0    116.0       57    211.2    210.0      100     0.000     0.000     0.000     0.000      107        0        0        0       23        5        0    17.462       96     40.3    7.030   -9.900     2.15    0.000    0.000       26        9     1993  Maize_Short_Soroca_6June_Optimum_85_MPI.PRM
  Tot(14)        6        6     1994    213.3    492.9   1309.0   358.63      0.0    170.1     43.2     19.9      0.0     89.2       35    245.3    245.3       95     0.000     0.000     0.000     0.000      107        0        0        0        7       23        3    18.472       82     40.9    7.557   -9.900     2.26    0.000    0.000       26        9     1994  Maize_Short_Soroca_6June_Optimum_85_MPI.PRM
  Tot(15)        6        6     1995    377.3    450.2   1246.1   360.62      0.0    331.3     46.0     26.1      0.0    119.3       55    236.5    237.4      100     0.000     0.000     0.000     0.000      107        0        0        0       13        2        0    19.372       97     40.1    7.764   -9.900     2.18    0.000    0.000       26        9     1995  Maize_Short_Soroca_6June_Optimum_85_MPI.PRM
  Tot(16)        6        6     1996    392.3    424.9   1100.1   362.37      0.0    340.3     52.0     22.4      0.0    133.1       61    197.5    197.6      100     0.000     0.000     0.000     0.000      107        0        0        0       24        2        0    16.650       96     40.1    6.678   -9.900     2.02    0.000    0.000       26        9     1996  Maize_Short_Soroca_6June_Optimum_85_MPI.PRM
  Tot(17)        6        6     1997    318.9    401.6   1109.9   363.47      0.0    300.0     18.9     23.7      0.0    142.6       74    190.5    190.6      100     0.000     0.000     0.000     0.000      107        0        0        0       19        1        0    17.851       97     40.0    7.146   -9.900     2.15    0.000    0.000       26        9     1997  Maize_Short_Soroca_6June_Optimum_85_MPI.PRM
  Tot(18)        6        6     1998    287.9    420.7   1171.6   366.50      0.0    270.1     17.8     35.9      0.0    126.6       70    221.8    221.0      100     0.000     0.000     0.000     0.000      107        0        0        0       20        2        0    17.936       97     40.1    7.196   -9.900     2.07    0.000    0.000       26        9     1998  Maize_Short_Soroca_6June_Optimum_85_MPI.PRM
  Tot(19)        6        6     1999    165.9    483.7   1378.8   368.14      0.0    165.9      0.0      0.0      0.0    116.2       46    239.8    238.9       99     0.000     0.000     0.000     0.000      107        0        0        0        7       13        1    19.803       92     40.5    8.030   -9.900     2.26    0.000    0.000       26        9     1999  Maize_Short_Soroca_6June_Optimum_85_MPI.PRM
  Tot(20)        6        6     2000    297.3    455.6   1161.2   369.41      0.0    282.8     14.5     20.8      0.0    148.9       68    232.4    234.0      100     0.000     0.000     0.000     0.000      107        0        0        0       20        2        0    18.630       97     40.2    7.487   -9.900     1.96    0.000    0.000       26        9     2000  Maize_Short_Soroca_6June_Optimum_85_MPI.PRM
  Tot(21)        6        6     2001    265.2    462.1   1291.3   371.07      0.0    251.0     14.2      4.4      0.0    148.7       72    243.1    243.3       95     0.000     0.000     0.000     0.000      107        0        0        0       12        9        3    18.439       88     40.5    7.475   -9.900     1.91    0.000    0.000       26        9     2001  Maize_Short_Soroca_6June_Optimum_85_MPI.PRM
  Tot(22)        6        6     2002    389.7    467.2   1321.1   373.16      0.0    352.6     37.1     42.5      0.0    111.1       45    233.9    233.6      100     0.000     0.000     0.000     0.000      107        0        0        0       11        4        0    19.338       93     40.0    7.735   -9.900     2.24    0.000    0.000       26        9     2002  Maize_Short_Soroca_6June_Optimum_85_MPI.PRM
  Tot(23)        6        6     2003    334.8    489.0   1220.9   375.80      0.0    285.0     49.8     63.3      0.0    133.7       57    245.9    246.1      100     0.000     0.000     0.000     0.000      107        0        0        0       15        2        0    19.012       96     40.0    7.613   -9.900     2.01    0.000    0.000       26        9     2003  Maize_Short_Soroca_6June_Optimum_85_MPI.PRM
  Tot(24)        6        6     2004    263.1    450.3   1178.8   377.49      0.0    242.3     20.8      9.2      0.0     93.0       39    210.9    210.9      100     0.000     0.000     0.000     0.000      107        0        0        0       15        4        0    18.718       94     40.0    7.489   -9.900     2.46    0.000    0.000       26        9     2004  Maize_Short_Soroca_6June_Optimum_85_MPI.PRM
  Tot(25)        6        6     2005    181.1    447.2   1239.3   379.80      0.0    175.6      5.5      8.2      0.0    113.8       56    245.0    243.9       99     0.000     0.000     0.000     0.000      107        0        0        0        9        6        1    20.634       95     40.2    8.295   -9.900     2.31    0.000    0.000       26        9     2005  Maize_Short_Soroca_6June_Optimum_85_MPI.PRM
  Tot(26)        6        6     2006    220.5    483.0   1237.4   381.90      0.0    215.5      5.0      0.0      0.0    107.4       46    249.8    248.3      100     0.000     0.000     0.000     0.000      107        0        0        0       11        7        0    19.853       94     40.2    7.983   -9.900     2.23    0.000    0.000       26        9     2006  Maize_Short_Soroca_6June_Optimum_85_MPI.PRM
  Tot(27)        6        6     2007    185.3    532.1   1314.3   383.77      0.0    181.4      3.9      0.0      0.0    105.3       34    226.3    227.8      100     0.000     0.000     0.000     0.000      107        0        0        0       13       17        0    17.234       86     40.3    6.950   -9.900     2.10    0.000    0.000       26        9     2007  Maize_Short_Soroca_6June_Optimum_85_MPI.PRM
  Tot(28)        6        6     2008    400.0    488.6   1252.2   385.59      0.0    330.7     69.3     52.0      0.0    121.0       50    256.1    256.9      100     0.000     0.000     0.000     0.000      107        0        0        0       15        3        0    18.626       95     40.1    7.461   -9.900     1.98    0.000    0.000       26        9     2008  Maize_Short_Soroca_6June_Optimum_85_MPI.PRM
  Tot(29)        6        6     2009    155.7    534.4   1353.0   387.37      0.0    154.7      1.0      0.0      0.0    147.7       53    224.3    224.6       86     0.000     0.000     0.000     0.000      107        0        0        0        8       15       15    15.856       71     40.0    6.345   -9.900     1.71    0.000    0.000       26        9     2009  Maize_Short_Soroca_6June_Optimum_85_MPI.PRM
  Tot(30)        6        6     2010    312.2    466.6   1338.8   389.85      0.0    287.9     24.3     41.7      0.0    138.3       65    249.8    247.9       99     0.000     0.000     0.000     0.000      107        0        0        0       13        6        1    19.331       95     40.4    7.809   -9.900     2.01    0.000    0.000       26        9     2010  Maize_Short_Soroca_6June_Optimum_85_MPI.PRM
  Tot(31)        6        6     2011    175.5    501.1   1309.7   391.63      0.0    172.0      3.5      3.5      0.0    141.3       61    244.8    246.6       89     0.000     0.000     0.000     0.000      107        0        0        0        8        5       12    18.145       80     39.9    7.232   -9.900     1.87    0.000    0.000       26        9     2011  Maize_Short_Soroca_6June_Optimum_85_MPI.PRM
  Tot(32)        6        6     2012    107.4    583.0   1401.8   393.82      0.0    105.8      1.6      3.9      0.0    104.2       29    211.3    211.3       87     0.000     0.000     0.000     0.000      107        0        0        0        7       30       13    13.847       63     40.4    5.597   -9.900     1.77    0.000    0.000       26        9     2012  Maize_Short_Soroca_6June_Optimum_85_MPI.PRM
  Tot(33)        6        6     2013    249.3    473.0   1269.4   396.48      0.0    231.5     17.8      0.0      0.0    130.3       53    203.7    203.6       91     0.000     0.000     0.000     0.000      107        0        0        0       13       20        4    16.268       81     40.8    6.639   -9.900     1.99    0.000    0.000       26        9     2013  Maize_Short_Soroca_6June_Optimum_85_MPI.PRM
  Tot(34)        6        6     2014    237.1    504.5   1302.8   398.55      0.0    217.1     20.0     22.3      0.0    105.9       46    262.6    262.7       95     0.000     0.000     0.000     0.000      107        0        0        0       11        6        5    19.268       89     40.2    7.737   -9.900     2.10    0.000    0.000       26        9     2014  Maize_Short_Soroca_6June_Optimum_85_MPI.PRM
  Tot(35)        6        6     2015     75.3    590.7   1405.3   402.00      0.0     75.3      0.0      0.0      0.0     96.2       25    171.2    171.3       80     0.000     0.000     0.000     0.000      102        0        0        0        7       30       17    10.410       46     39.5    4.110   -9.900     1.57    0.000    0.000       26        9     2015  Maize_Short_Soroca_6June_Optimum_85_MPI.PRM
  Tot(36)        6        6     2016    196.8    529.3   1373.3   404.00      0.0    193.9      2.9      1.7      0.0    155.3       59    244.0    243.9       89     0.000     0.000     0.000     0.000      107        0        0        0        9       17       12    17.059       77     40.2    6.866   -9.900     1.72    0.000    0.000       26        9     2016  Maize_Short_Soroca_6June_Optimum_85_MPI.PRM
  Tot(37)        6        6     2017    229.7    532.7   1347.1   407.00      0.0    222.5      7.2      1.9      0.0    147.9       56    239.4    238.7       88     0.000     0.000     0.000     0.000      107        0        0        0        8       13        9    17.163       77     40.2    6.902   -9.900     1.78    0.000    0.000       26        9     2017  Maize_Short_Soroca_6June_Optimum_85_MPI.PRM
  Tot(38)        6        6     2018    252.3    476.6   1408.2   410.00      0.0    239.0     13.3     15.2      0.0    141.3       69    276.6    277.5       98     0.000     0.000     0.000     0.000      107        0        0        0        7        1        2    21.713       95     40.0    8.694   -9.900     2.08    0.000    0.000       26        9     2018  Maize_Short_Soroca_6June_Optimum_85_MPI.PRM
  Tot(39)        6        6     2019    166.3    540.1   1376.3   413.00      0.0    163.1      3.2      4.4      0.0    138.9       51    217.0    216.8       81     0.000     0.000     0.000     0.000      107        0        0        0        9       13       17    15.369       70     39.7    6.109   -9.900     1.72    0.000    0.000       26        9     2019  Maize_Short_Soroca_6June_Optimum_85_MPI.PRM
  Tot(40)        6        6     2020    157.2    449.5   1048.0   416.00      0.0    155.8      1.4      0.0      0.0    105.8       49    208.8    208.4      100     0.000     0.000     0.000     0.000      107        0        0        0       24        6        0    17.270       95     40.1    6.932   -9.900     2.20    0.000    0.000       26        9     2020  Maize_Short_Soroca_6June_Optimum_85_MPI.PRM
  Tot(41)        6        6     2021    240.8    421.9   1079.6   419.00      0.0    226.2     14.6     18.1      0.0    120.7       67    229.1    228.0      100     0.000     0.000     0.000     0.000      107        0        0        0       20        2        0    19.852       97     40.1    7.960   -9.900     2.28    0.000    0.000       26        9     2021  Maize_Short_Soroca_6June_Optimum_85_MPI.PRM
  Tot(42)        6        6     2022    294.6    404.5   1016.7   422.00      0.0    256.3     38.3     57.8      0.0    138.5       81    201.4    202.3      100     0.000     0.000     0.000     0.000      107        0        0        0       25        3        0    17.775       97     40.2    7.137   -9.900     2.10    0.000    0.000       26        9     2022  Maize_Short_Soroca_6June_Optimum_85_MPI.PRM
  Tot(43)        6        6     2023    278.4    413.8   1083.2   425.00      0.0    260.2     18.2     37.1      0.0    101.2       46    175.2    176.1      100     0.000     0.000     0.000     0.000      107        0        0        0       20        2        0    17.586       95     40.0    7.034   -9.900     2.54    0.000    0.000       26        9     2023  Maize_Short_Soroca_6June_Optimum_85_MPI.PRM
  Tot(44)        6        6     2024    211.9    413.3    976.0   428.00      0.0    201.5     10.4      0.0      0.0    103.5       47    168.5    167.9      100     0.000     0.000     0.000     0.000      107        0        0        0       28       12        0    15.526       93     40.4    6.280   -9.900     2.31    0.000    0.000       26        9     2024  Maize_Short_Soroca_6June_Optimum_85_MPI.PRM
  Tot(45)        6        6     2025    197.2    436.2   1039.9   431.00      0.0    181.5     15.7      0.2      0.0    100.4       43    185.9    186.5      100     0.000     0.000     0.000     0.000      107        0        0        0       26       13        0    15.461       91     40.5    6.261   -9.900     2.19    0.000    0.000       26        9     2025  Maize_Short_Soroca_6June_Optimum_85_MPI.PRM
  Tot(46)        6        6     2026    255.6    438.1   1229.4   435.00      0.0    245.9      9.7      0.0      0.0    116.4       47    189.1    189.0      100     0.000     0.000     0.000     0.000      107        0        0        0       15        4        0    19.244       94     40.1    7.710   -9.900     2.52    0.000    0.000       26        9     2026  Maize_Short_Soroca_6June_Optimum_85_MPI.PRM
  Tot(47)        6        6     2027    286.0    419.7   1103.5   438.00      0.0    267.3     18.7      0.0      0.0    106.3       48    179.1    179.0      100     0.000     0.000     0.000     0.000      107        0        0        0       19        3        0    18.398       96     40.0    7.361   -9.900     2.58    0.000    0.000       26        9     2027  Maize_Short_Soroca_6June_Optimum_85_MPI.PRM
  Tot(48)        6        6     2028    319.3    417.5   1061.6   442.00      0.0    308.2     11.1     13.9      0.0    130.5       69    217.9    218.0      100     0.000     0.000     0.000     0.000      107        0        0        0       18        2        0    19.762       97     40.1    7.922   -9.900     2.27    0.000    0.000       26        9     2028  Maize_Short_Soroca_6June_Optimum_85_MPI.PRM
  Tot(49)        6        6     2029    332.8    402.4   1169.9   445.00      0.0    252.7     80.1     86.4      0.0    134.9       75    210.9    209.6      100     0.000     0.000     0.000     0.000      107        0        0        0       12        1        0    20.423       97     40.0    8.179   -9.900     2.37    0.000    0.000       26        9     2029  Maize_Short_Soroca_6June_Optimum_85_MPI.PRM
  Tot(50)        6        6     2030    164.8    416.3    927.5   449.00      0.0    161.1      3.7      0.0      0.0     99.4       50    180.8    181.6      100     0.000     0.000     0.000     0.000      107        0        0        0       28        4        0    16.780       96     40.1    6.732   -9.900     2.40    0.000    0.000       26        9     2030  Maize_Short_Soroca_6June_Optimum_85_MPI.PRM
  Tot(51)        6        6     2031    342.1    393.3    967.5   452.00      0.0    298.0     44.1     74.7      0.0    122.9       73    181.5    182.1      100     0.000     0.000     0.000     0.000      107        0        0        0       30        0        0    15.909       98     40.0    6.367   -9.900     2.09    0.000    0.000       26        9     2031  Maize_Short_Soroca_6June_Optimum_85_MPI.PRM
  Tot(52)        6        6     2032    186.4    481.1   1193.4   456.00      0.0    180.2      6.2      0.0      0.0     84.0       35    237.0    235.7      100     0.000     0.000     0.000     0.000      107        0        0        0       13        7        0    20.099       93     40.2    8.072   -9.900     2.51    0.000    0.000       26        9     2032  Maize_Short_Soroca_6June_Optimum_85_MPI.PRM
  Tot(53)        6        6     2033    329.4    459.5   1085.5   460.00      0.0    282.8     46.6     47.8      0.0    129.2       57    209.6    208.4      100     0.000     0.000     0.000     0.000      107        0        0        0       20        5        0    17.891       96     40.2    7.191   -9.900     2.12    0.000    0.000       26        9     2033  Maize_Short_Soroca_6June_Optimum_85_MPI.PRM
  Tot(54)        6        6     2034    248.3    503.1   1315.2   464.00      0.0    236.1     12.2      0.0      0.0    101.2       38    236.7    237.9      100     0.000     0.000     0.000     0.000      107        0        0        0       10        5        0    20.336       93     40.1    8.147   -9.900     2.41    0.000    0.000       26        9     2034  Maize_Short_Soroca_6June_Optimum_85_MPI.PRM
  Tot(55)        6        6     2035    141.8    483.7   1100.5   468.00      0.0    141.6      0.2      0.0      0.0    115.4       44    192.8    194.0       99     0.000     0.000     0.000     0.000      107        0        0        0       22       12        0    16.204       91     40.5    6.556   -9.900     2.13    0.000    0.000       26        9     2035  Maize_Short_Soroca_6June_Optimum_85_MPI.PRM
  Tot(56)        6        6     2036    115.3    545.9   1313.1   472.00      0.0    115.2      0.1      0.0      0.0    101.8       38    225.8    225.6       83     0.000     0.000     0.000     0.000      107        0        0        0       11       16       13    16.059       72     40.2    6.451   -9.900     1.97    0.000    0.000       26        9     2036  Maize_Short_Soroca_6June_Optimum_85_MPI.PRM
  Tot(57)        6        6     2037    205.9    436.0   1133.0   476.00      0.0    194.3     11.6      8.9      0.0    122.6       66    219.5    219.6       97     0.000     0.000     0.000     0.000      107        0        0        0       16        5        2    19.378       94     40.3    7.800   -9.900     2.28    0.000    0.000       26        9     2037  Maize_Short_Soroca_6June_Optimum_85_MPI.PRM
  Tot(58)        6        6     2038    130.9    481.2   1055.8   481.00      0.0    128.1      2.8      3.9      0.0     92.6       40    210.6    210.6       96     0.000     0.000     0.000     0.000      107        0        0        0       23       12        4    16.444       87     40.3    6.632   -9.900     2.19    0.000    0.000       26        9     2038  Maize_Short_Soroca_6June_Optimum_85_MPI.PRM
  Tot(59)        6        6     2039    227.0    456.5   1219.4   485.00      0.0    213.4     13.6     17.3      0.0    114.8       55    239.5    237.9       98     0.000     0.000     0.000     0.000      107        0        0        0       10        4        1    20.912       94     40.1    8.390   -9.900     2.37    0.000    0.000       26        9     2039  Maize_Short_Soroca_6June_Optimum_85_MPI.PRM
  Tot(60)        6        6     2040    213.1    413.9   1086.2   489.00      0.0    194.8     18.3     18.9      0.0    130.8       75    217.4    218.3      100     0.000     0.000     0.000     0.000      107        0        0        0       18        1        0    20.131       97     40.1    8.068   -9.900     2.32    0.000    0.000       26        9     2040  Maize_Short_Soroca_6June_Optimum_85_MPI.PRM
  Tot(61)        6        6     2041    235.4    465.3   1058.6   494.00      0.0    212.5     22.9      0.0      0.0    103.7       45    209.4    210.2      100     0.000     0.000     0.000     0.000      107        0        0        0       20        5        0    18.573       94     40.2    7.471   -9.900     2.39    0.000    0.000       26        9     2041  Maize_Short_Soroca_6June_Optimum_85_MPI.PRM
  Tot(62)        6        6     2042    253.5    443.3   1120.4   499.00      0.0    243.3     10.2      3.9      0.0    107.8       50    215.8    215.6      100     0.000     0.000     0.000     0.000      107        0        0        0       15        2        0    20.126       96     40.0    8.052   -9.900     2.49    0.000    0.000       26        9     2042  Maize_Short_Soroca_6June_Optimum_85_MPI.PRM
  Tot(63)        6        6     2043    185.5    476.4   1306.9   504.00      0.0    179.1      6.4      6.5      0.0    122.6       54    223.7    223.8       90     0.000     0.000     0.000     0.000      107        0        0        0        8       13        8    18.696       80     40.3    7.537   -9.900     2.18    0.000    0.000       26        9     2043  Maize_Short_Soroca_6June_Optimum_85_MPI.PRM
  Tot(64)        6        6     2044    183.1    487.5   1215.5   508.00      0.0    175.9      7.2      0.0      0.0    107.3       46    237.8    237.9      100     0.000     0.000     0.000     0.000      107        0        0        0       14        5        0    19.877       94     40.0    7.956   -9.900     2.31    0.000    0.000       26        9     2044  Maize_Short_Soroca_6June_Optimum_85_MPI.PRM
  Tot(65)        6        6     2045    154.6    469.0   1254.1   513.00      0.0    154.3      0.3      0.0      0.0     97.2       39    218.8    218.6      100     0.000     0.000     0.000     0.000      107        0        0        0       11        9        0    20.330       92     40.1    8.159   -9.900     2.58    0.000    0.000       26        9     2045  Maize_Short_Soroca_6June_Optimum_85_MPI.PRM
  Tot(66)        6        6     2046    285.3    437.2   1273.4   519.00      0.0    274.6     10.7     18.2      0.0    126.3       70    251.7    249.3      100     0.000     0.000     0.000     0.000      107        0        0        0        7        5        0    22.812       96     40.2    9.174   -9.900     2.43    0.000    0.000       26        9     2046  Maize_Short_Soroca_6June_Optimum_85_MPI.PRM
  Tot(67)        6        6     2047    209.3    423.4   1147.1   524.00      0.0    202.2      7.1     11.0      0.0    113.5       50    181.0    182.7      100     0.000     0.000     0.000     0.000      107        0        0        0       14        3        0    19.607       95     40.0    7.847   -9.900     2.66    0.000    0.000       26        9     2047  Maize_Short_Soroca_6June_Optimum_85_MPI.PRM
  Tot(68)        6        6     2048    140.3    521.6   1248.6   529.00      0.0    135.3      5.0      0.0      0.0     94.6       36    243.3    244.1       95     0.000     0.000     0.000     0.000      107        0        0        0       12       14        6    18.941       84     39.9    7.563   -9.900     2.24    0.000    0.000       26        9     2048  Maize_Short_Soroca_6June_Optimum_85_MPI.PRM
  Tot(69)        6        6     2049    134.4    470.4   1228.6   535.00      0.0    134.2      0.2      0.2      0.0    102.9       53    243.9    243.6       92     0.000     0.000     0.000     0.000      107        0        0        0       13        6        7    20.008       87     40.2    8.041   -9.900     2.32    0.000    0.000       26        9     2049  Maize_Short_Soroca_6June_Optimum_85_MPI.PRM
  Tot(70)        6        6     2050    264.0    413.0   1159.6   541.00      0.0    253.9     10.1      0.0      0.0     92.5       47    205.3    204.7      100     0.000     0.000     0.000     0.000      107        0        0        0       13        1        0    21.104       96     40.0    8.442   -9.900     2.83    0.000    0.000       26        9     2050  Maize_Short_Soroca_6June_Optimum_85_MPI.PRM
  Tot(71)        6        6     2051    218.5    462.2   1182.5   546.00      0.0    202.3     16.2     10.7      0.0    105.9       50    239.4    240.1       99     0.000     0.000     0.000     0.000      107        0        0        0       12       14        0    20.645       92     40.8    8.426   -9.900     2.44    0.000    0.000       26        9     2051  Maize_Short_Soroca_6June_Optimum_85_MPI.PRM
  Tot(72)        6        6     2052    318.6    405.0   1055.5   552.00      0.0    288.3     30.3      0.0      0.0    121.2       67    203.3    203.3      100     0.000     0.000     0.000     0.000      107        0        0        0       20        6        0    19.465       96     40.2    7.826   -9.900     2.41    0.000    0.000       26        9     2052  Maize_Short_Soroca_6June_Optimum_85_MPI.PRM
  Tot(73)        6        6     2053    216.4    492.9   1213.3   558.00      0.0    197.9     18.5     22.0      0.0     98.8       38    220.9    220.2      100     0.000     0.000     0.000     0.000      107        0        0        0       14       13        0    19.158       91     40.4    7.749   -9.900     2.42    0.000    0.000       26        9     2053  Maize_Short_Soroca_6June_Optimum_85_MPI.PRM
  Tot(74)        6        6     2054    115.3    552.5   1415.3   564.00      0.0    114.5      0.8      0.0      0.0    101.6       35    221.5    221.4       87     0.000     0.000     0.000     0.000      107        0        0        0        5       16       10    17.497       73     40.4    7.060   -9.900     2.19    0.000    0.000       26        9     2054  Maize_Short_Soroca_6June_Optimum_85_MPI.PRM
  Tot(75)        6        6     2055    246.9    467.9   1220.8   571.00      0.0    234.9     12.0      0.8      0.0    102.9       50    245.9    246.0      100     0.000     0.000     0.000     0.000      107        0        0        0       12        6        0    21.511       95     40.2    8.647   -9.900     2.48    0.000    0.000       26        9     2055  Maize_Short_Soroca_6June_Optimum_85_MPI.PRM
  Tot(76)        6        6     2056     94.1    523.1   1268.3   577.00      0.0     94.1      0.0      0.0      0.0     93.1       33    206.8    206.5       89     0.000     0.000     0.000     0.000      107        0        0        0       10       17        8    17.263       77     40.6    7.010   -9.900     2.34    0.000    0.000       26        9     2056  Maize_Short_Soroca_6June_Optimum_85_MPI.PRM
  Tot(77)        6        6     2057    176.7    523.3   1235.1   583.00      0.0    160.0     16.7      0.3      0.0     91.4       36    238.8    238.6       93     0.000     0.000     0.000     0.000      107        0        0        0       12       17        3    18.609       83     40.6    7.559   -9.900     2.29    0.000    0.000       26        9     2057  Maize_Short_Soroca_6June_Optimum_85_MPI.PRM
  Tot(78)        6        6     2058    281.0    416.4   1177.9   590.00      0.0    251.9     29.1     16.0      0.0    111.1       58    207.6    207.9      100     0.000     0.000     0.000     0.000      107        0        0        0       12        3        0    21.245       96     40.0    8.507   -9.900     2.67    0.000    0.000       26        9     2058  Maize_Short_Soroca_6June_Optimum_85_MPI.PRM
  Tot(79)        6        6     2059    129.6    544.3   1370.3   597.00      0.0    124.6      5.0      7.7      0.0    116.1       45    218.1    219.3       82     0.000     0.000     0.000     0.000      106        0        0        0        7       10       18    15.635       66     39.7    6.204   -9.900     1.86    0.000    0.000       26        9     2059  Maize_Short_Soroca_6June_Optimum_85_MPI.PRM
  Tot(80)        6        6     2060     82.1    537.5   1244.0   604.00      0.0     81.6      0.5      0.0      0.0     89.7       32    207.6    207.5       85     0.000     0.000     0.000     0.000      107        0        0        0        9       15       14    16.260       70     39.9    6.483   -9.900     2.18    0.000    0.000       26        9     2060  Maize_Short_Soroca_6June_Optimum_85_MPI.PRM
  Tot(81)        6        6     2061    170.2    412.9   1019.0   611.00      0.0    168.7      1.5      0.0      0.0    100.0       54    196.7    196.9      100     0.000     0.000     0.000     0.000      107        0        0        0       26        5        0    17.883       96     40.2    7.185   -9.900     2.42    0.000    0.000       26        9     2061  Maize_Short_Soroca_6June_Optimum_85_MPI.PRM
  Tot(82)        6        6     2062    235.6    455.5   1251.3   618.00      0.0    218.5     17.1     10.3      0.0    123.4       53    212.6    212.5       97     0.000     0.000     0.000     0.000      107        0        0        0        9       12        2    20.335       90     40.5    8.243   -9.900     2.45    0.000    0.000       26        9     2062  Maize_Short_Soroca_6June_Optimum_85_MPI.PRM
  Tot(83)        6        6     2063    161.3    485.8   1238.9   625.00      0.0    158.6      2.7      0.0      0.0     96.8       40    224.5    224.2      100     0.000     0.000     0.000     0.000      107        0        0        0       12        7        0    20.269       94     40.3    8.167   -9.900     2.54    0.000    0.000       26        9     2063  Maize_Short_Soroca_6June_Optimum_85_MPI.PRM
  Tot(84)        6        6     2064    179.7    446.8   1359.7   632.00      0.0    164.3     15.4     29.4      0.0    101.6       50    232.0    231.2       97     0.000     0.000     0.000     0.000      107        0        0        0        4        7        3    22.196       91     40.2    8.914   -9.900     2.67    0.000    0.000       26        9     2064  Maize_Short_Soroca_6June_Optimum_85_MPI.PRM
  Tot(85)        6        6     2065    139.7    474.9   1186.8   639.00      0.0    139.0      0.7      0.0      0.0    113.4       51    211.5    212.5       94     0.000     0.000     0.000     0.000      107        0        0        0       15       10        5    18.094       86     40.4    7.302   -9.900     2.25    0.000    0.000       26        9     2065  Maize_Short_Soroca_6June_Optimum_85_MPI.PRM
  Tot(86)        6        6     2066    253.9    576.8   1399.1   647.00      0.0    226.4     27.5      1.1      0.0    129.0       43    243.6    242.3       91     0.000     0.000     0.000     0.000      107        0        0        0        7       24        4    18.310       80     40.9    7.480   -9.900     2.01    0.000    0.000       26        9     2066  Maize_Short_Soroca_6June_Optimum_85_MPI.PRM
  Tot(87)        6        6     2067    236.5    442.0   1194.2   654.00      0.0    229.4      7.1      5.8      0.0    106.9       54    228.5    228.0      100     0.000     0.000     0.000     0.000      107        0        0        0       12        4        0    21.875       96     40.1    8.780   -9.900     2.62    0.000    0.000       26        9     2067  Maize_Short_Soroca_6June_Optimum_85_MPI.PRM
  Tot(88)        6        6     2068    171.1    488.4   1232.6   662.00      0.0    170.8      0.3      0.0      0.0     99.2       40    221.2    221.0      100     0.000     0.000     0.000     0.000      107        0        0        0       11       14        0    19.642       90     40.6    7.973   -9.900     2.49    0.000    0.000       26        9     2068  Maize_Short_Soroca_6June_Optimum_85_MPI.PRM
  Tot(89)        6        6     2069    275.5    452.7   1281.7   669.00      0.0    233.7     41.8     38.6      0.0    110.1       45    190.6    191.8      100     0.000     0.000     0.000     0.000      107        0        0        0        9        4        0    20.897       95     40.0    8.369   -9.900     2.78    0.000    0.000       26        9     2069  Maize_Short_Soroca_6June_Optimum_85_MPI.PRM
  Tot(90)        6        6     2070    129.4    496.4   1389.3   677.00      0.0    128.7      0.7      0.1      0.0    101.1       45    233.4    232.0       89     0.000     0.000     0.000     0.000      107        0        0        0        5       10        9    19.435       78     40.1    7.792   -9.900     2.33    0.000    0.000       26        9     2070  Maize_Short_Soroca_6June_Optimum_85_MPI.PRM
  Tot(91)        6        6     2071    116.5    529.5   1398.2   685.00      0.0    108.6      7.9     25.8      0.0     79.2       34    221.0    223.3       81     0.000     0.000     0.000     0.000      107        0        0        0        6       11       16    16.849       69     39.6    6.665   -9.900     2.22    0.000    0.000       26        9     2071  Maize_Short_Soroca_6June_Optimum_85_MPI.PRM
  Tot(92)        6        6     2072    110.1    584.1   1392.1   693.00      0.0    109.9      0.2      0.0      0.0     89.8       26    212.5    211.6       89     0.000     0.000     0.000     0.000      107        0        0        0        7       27        6    16.166       70     40.7    6.580   -9.900     2.18    0.000    0.000       26        9     2072  Maize_Short_Soroca_6June_Optimum_85_MPI.PRM
  Tot(93)        6        6     2073    183.7    408.0   1220.7   701.00      0.0    176.2      7.5      1.3      0.0     97.2       51    208.1    207.9      100     0.000     0.000     0.000     0.000      107        0        0        0        8        2        0    22.991       96     40.0    9.205   -9.900     3.01    0.000    0.000       26        9     2073  Maize_Short_Soroca_6June_Optimum_85_MPI.PRM
  Tot(94)        6        6     2074    208.0    407.0   1171.4   709.00      0.0    202.3      5.7     12.4      0.0    114.4       61    195.1    195.0      100     0.000     0.000     0.000     0.000      107        0        0        0       13        1        0    20.807       97     40.0    8.330   -9.900     2.69    0.000    0.000       26        9     2074  Maize_Short_Soroca_6June_Optimum_85_MPI.PRM
  Tot(95)        6        6     2075    116.9    506.9   1391.7   717.00      0.0    114.0      2.9      4.6      0.0    111.9       45    207.5    208.7       84     0.000     0.000     0.000     0.000      107        0        0        0        5       23       13    16.817       70     40.5    6.819   -9.900     2.13    0.000    0.000       26        9     2075  Maize_Short_Soroca_6June_Optimum_85_MPI.PRM
  Tot(96)        6        6     2076    121.8    547.9   1536.9   725.00      0.0    121.5      0.3      0.0      0.0     95.5       33    231.6    230.5       91     0.000     0.000     0.000     0.000      107        0        0        0        2       16        6    19.224       79     40.3    7.756   -9.900     2.37    0.000    0.000       26        9     2076  Maize_Short_Soroca_6June_Optimum_85_MPI.PRM
  Tot(97)        6        6     2077    259.9    473.5   1433.5   733.00      0.0    232.4     27.5      0.0      0.0     96.3       41    231.0    230.9      100     0.000     0.000     0.000     0.000      107        0        0        0        5        8        0    22.006       93     40.3    8.872   -9.900     2.71    0.000    0.000       26        9     2077  Maize_Short_Soroca_6June_Optimum_85_MPI.PRM
  Tot(98)        6        6     2078    225.8    468.2   1315.9   742.00      0.0    210.6     15.2     20.9      0.0    139.9       64    220.5    221.6      100     0.000     0.000     0.000     0.000      107        0        0        0       12        4        0    20.332       96     40.2    8.164   -9.900     2.27    0.000    0.000       26        9     2078  Maize_Short_Soroca_6June_Optimum_85_MPI.PRM
  Tot(99)        6        6     2079    139.7    497.1   1250.5   750.00      0.0    126.0     13.7      0.0      0.0     83.6       36    232.5    232.1       97     0.000     0.000     0.000     0.000      107        0        0        0       11        5        3    19.778       91     40.0    7.916   -9.900     2.50    0.000    0.000       26        9     2079  Maize_Short_Soroca_6June_Optimum_85_MPI.PRM
 Tot(100)        6        6     2080     96.0    502.7   1315.6   758.00      0.0     95.7      0.3      0.0      0.0     73.5       32    228.9    228.5       93     0.000     0.000     0.000     0.000      107        0        0        0        9        8        7    19.457       86     40.2    7.831   -9.900     2.59    0.000    0.000       26        9     2080  Maize_Short_Soroca_6June_Optimum_85_MPI.PRM
 Tot(101)        6        6     2081    154.6    480.1   1328.0   767.00      0.0    149.2      5.4      6.9      0.0     94.3       41    228.9    228.8       99     0.000     0.000     0.000     0.000      107        0        0        0        8       10        1    20.712       92     40.4    8.366   -9.900     2.59    0.000    0.000       26        9     2081  Maize_Short_Soroca_6June_Optimum_85_MPI.PRM
 Tot(102)        6        6     2082    100.8    661.1   1603.3   775.00      0.0     95.5      5.3      4.1      0.0    110.6       29    185.6    186.6       77     0.000     0.000     0.000     0.000       97        0        0        0        1       26       19    12.005       50     33.9    4.071   -9.900     1.39    0.000    0.000       26        9     2082  Maize_Short_Soroca_6June_Optimum_85_MPI.PRM
 Tot(103)        6        6     2083    118.0    524.7   1465.3   784.00      0.0    115.9      2.1      0.0      0.0    100.4       38    200.0    199.0       83     0.000     0.000     0.000     0.000      107        0        0        0        5       21       10    15.663       67     40.6    6.363   -9.900     2.12    0.000    0.000       26        9     2083  Maize_Short_Soroca_6June_Optimum_85_MPI.PRM
 Tot(104)        6        6     2084    310.6    424.8   1325.8   792.00      0.0    293.6     17.0     35.9      0.0    128.0       67    208.9    209.8      100     0.000     0.000     0.000     0.000      107        0        0        0        9        1        0    21.448       97     40.0    8.579   -9.900     2.55    0.000    0.000       26        9     2084  Maize_Short_Soroca_6June_Optimum_85_MPI.PRM
 Tot(105)        6        6     2085    134.4    581.4   1447.7   801.00      0.0    133.5      0.9      0.0      0.0    127.0       41    199.6    198.9       81     0.000     0.000     0.000     0.000      107        0        0        0        3       23       13    14.406       59     40.5    5.839   -9.900     1.79    0.000    0.000       26        9     2085  Maize_Short_Soroca_6June_Optimum_85_MPI.PRM
 Tot(106)        6        6     2086    205.4    528.7   1410.6   810.00      0.0    193.5     11.9      0.0      0.0     98.9       37    245.4    245.6      100     0.000     0.000     0.000     0.000      107        0        0        0        4        8        0    21.727       93     40.0    8.699   -9.900     2.53    0.000    0.000       26        9     2086  Maize_Short_Soroca_6June_Optimum_85_MPI.PRM
 Tot(107)        6        6     2087    136.2    471.8   1285.4   818.00      0.0    133.8      2.4      4.0      0.0     88.2       36    207.9    208.1      100     0.000     0.000     0.000     0.000      107        0        0        0        9       11        0    20.056       92     40.3    8.078   -9.900     2.73    0.000    0.000       26        9     2087  Maize_Short_Soroca_6June_Optimum_85_MPI.PRM
 Tot(108)        6        6     2088    156.9    507.4   1351.2   827.00      0.0    132.4     24.5     40.0      0.0     93.6       34    202.8    202.6       94     0.000     0.000     0.000     0.000      107        0        0        0        6       19        5    18.705       82     40.6    7.600   -9.900     2.56    0.000    0.000       26        9     2088  Maize_Short_Soroca_6June_Optimum_85_MPI.PRM
 Tot(109)        6        6     2089    230.2    432.2   1231.8   836.00      0.0    221.2      9.0      4.5      0.0    103.8       54    211.0    211.4      100     0.000     0.000     0.000     0.000      107        0        0        0       14        6        0    20.009       96     40.2    8.050   -9.900     2.56    0.000    0.000       26        9     2089  Maize_Short_Soroca_6June_Optimum_85_MPI.PRM
 Tot(110)        6        6     2090     88.9    579.9   1407.7   845.00      0.0     88.9      0.0      0.0      0.0     88.3       27    199.2    198.1       86     0.000     0.000     0.000     0.000      107        0        0        0        8       26       10    15.329       69     40.6    6.228   -9.900     2.17    0.000    0.000       26        9     2090  Maize_Short_Soroca_6June_Optimum_85_MPI.PRM
 Tot(111)        6        6     2091    201.2    492.8   1362.6   854.00      0.0    193.1      8.1      0.0      0.0    123.5       54    240.2    239.7      100     0.000     0.000     0.000     0.000      107        0        0        0        6       12        0    21.269       93     40.7    8.650   -9.900     2.38    0.000    0.000       26        9     2091  Maize_Short_Soroca_6June_Optimum_85_MPI.PRM
 Tot(112)        6        6     2092    127.0    639.5   1540.7   863.00      0.0    126.5      0.5      0.0      0.0    134.2       39    197.3    198.9       78     0.000     0.000     0.000     0.000       97        0        0        0        5       25       19    11.660       51     34.1    3.970   -9.900     1.21    0.000    0.000       26        9     2092  Maize_Short_Soroca_6June_Optimum_85_MPI.PRM
 Tot(113)        6        6     2093    169.9    518.4   1406.6   872.00      0.0    166.3      3.6      0.0      0.0    114.5       49    249.4    248.1       97     0.000     0.000     0.000     0.000      107        0        0        0        4        5        3    21.259       91     40.1    8.517   -9.900     2.34    0.000    0.000       26        9     2093  Maize_Short_Soroca_6June_Optimum_85_MPI.PRM
 Tot(114)        6        6     2094    183.1    436.4   1327.4   881.00      0.0    174.6      8.5      0.0      0.0     90.8       40    193.9    192.7      100     0.000     0.000     0.000     0.000      107        0        0        0        6       10        0    21.382       93     40.1    8.573   -9.900     3.01    0.000    0.000       26        9     2094  Maize_Short_Soroca_6June_Optimum_85_MPI.PRM
 Tot(115)        6        6     2095    191.0    539.0   1408.7   890.00      0.0    187.7      3.3      0.0      0.0     77.8       25    209.9    212.1      100     0.000     0.000     0.000     0.000      107        0        0        0       10       11        0    18.994       89     40.2    7.634   -9.900     2.65    0.000    0.000       26        9     2095  Maize_Short_Soroca_6June_Optimum_85_MPI.PRM
 Tot(116)        6        6     2096    166.4    648.9   1665.5   899.00      0.0    147.0     19.4     25.8      0.0    113.2       33    212.2    212.1       78     0.000     0.000     0.000     0.000      107        0        0        0        1       18       17    13.788       57     40.1    5.535   -9.900     1.70    0.000    0.000       26        9     2096  Maize_Short_Soroca_6June_Optimum_85_MPI.PRM
 Tot(117)        6        6     2097    317.0    431.0   1328.3   908.00      0.0    287.2     29.8     16.7      0.0    103.4       44    173.2    172.8      100     0.000     0.000     0.000     0.000      107        0        0        0        9        4        0    20.313       94     40.0    8.126   -9.900     2.94    0.000    0.000       26        9     2097  Maize_Short_Soroca_6June_Optimum_85_MPI.PRM
 Tot(118)        6        6     2098    185.9    463.1   1328.5   917.00      0.0    167.5     18.4     20.2      0.0     96.8       47    228.8    227.1       99     0.000     0.000     0.000     0.000      107        0        0        0        4        6        1    21.999       94     40.2    8.837   -9.900     2.71    0.000    0.000       26        9     2098  Maize_Short_Soroca_6June_Optimum_85_MPI.PRM
 Tot(119)        6        6     2099    252.7    523.9   1400.4   927.00      0.0    231.3     21.4      1.5      0.0    117.6       40    205.2    207.5       98     0.000     0.000     0.000     0.000      107        0        0        0        8       20        1    18.275       85     40.5    7.401   -9.900     2.29    0.000    0.000       26        9     2099  Maize_Short_Soroca_6June_Optimum_85_MPI.PRM
