AquaCrop 7.0 (August 2022) - Output created on (date) : 23-11-2022   at (time) : 11:37:07

    RunNr     Day1   Month1    Year1     Rain      ETo       GD     CO2      Irri   Infilt   Runoff    Drain   Upflow        E     E/Ex       Tr      TrW   Tr/Trx    SaltIn   SaltOut    SaltUp  SaltProf     Cycle   SaltStr  FertStr  WeedStr  TempStr   ExpStr   StoStr  BioMass  Brelative   HI    Y(dry)  Y(fresh)    WPet      Bin     Bout     DayN   MonthN    YearN
                                           mm       mm  degC.day    ppm        mm       mm       mm       mm       mm       mm        %       mm       mm        %    ton/ha    ton/ha    ton/ha    ton/ha      days       %        %        %        %        %        %    ton/ha        %       %    ton/ha   ton/ha    kg/m3   ton/ha   ton/ha
   Tot(1)       22        5     1981    131.8    514.9   1295.7   340.11      0.0    131.0      0.8      0.0      0.0    103.1       43    242.3    187.9       87     0.000     0.000     0.000     0.000      107        0       42       25        8        8       10    13.074       61     40.1    5.245   -9.900     1.52    0.000    0.000       11        9     1981  Maize_short_Cahul_22May_NonOptimum_85_NCC.PRM
   Tot(2)       22        5     1982    240.1    482.2   1316.7   341.22      0.0    239.1      1.0      0.0      0.0    135.6       61    275.4    212.2      100     0.000     0.000     0.000     0.000      107        0       42       25        5        3        0    16.733       74     40.1    6.705   -9.900     1.63    0.000    0.000       11        9     1982  Maize_short_Cahul_22May_NonOptimum_85_NCC.PRM
   Tot(3)       22        5     1983    279.5    484.1   1295.1   342.84      0.0    252.0     27.5     32.8      0.0    123.2       58    279.7    217.1      100     0.000     0.000     0.000     0.000      107        0       42       25        7        5        0    16.256       74     40.2    6.533   -9.900     1.62    0.000    0.000       11        9     1983  Maize_short_Cahul_22May_NonOptimum_85_NCC.PRM
   Tot(4)       22        5     1984    165.7    468.8   1167.8   344.40      0.0    165.3      0.4      0.0      0.0    136.8       66    242.9    189.8       92     0.000     0.000     0.000     0.000      107        0       42       25       11        5        7    14.500       68     40.1    5.810   -9.900     1.53    0.000    0.000       11        9     1984  Maize_short_Cahul_22May_NonOptimum_85_NCC.PRM
   Tot(5)       22        5     1985    327.9    481.2   1222.6   345.87      0.0    296.5     31.4     47.4      0.0    134.3       67    278.4    214.6       98     0.000     0.000     0.000     0.000      107        0       42       25       12        3        1    15.693       74     40.1    6.300   -9.900     1.53    0.000    0.000       11        9     1985  Maize_short_Cahul_22May_NonOptimum_85_NCC.PRM
   Tot(6)       22        5     1986    159.8    540.0   1341.9   347.19      0.0    158.4      1.4      1.2      0.0    122.8       49    246.5    193.1       84     0.000     0.000     0.000     0.000      107        0       42       25        6       11       12    13.002       59     40.0    5.203   -9.900     1.41    0.000    0.000       11        9     1986  Maize_short_Cahul_22May_NonOptimum_85_NCC.PRM
   Tot(7)       22        5     1987    237.0    495.2   1234.6   348.98      0.0    226.5     10.5      5.8      0.0    111.8       54    293.7    227.1      100     0.000     0.000     0.000     0.000      107        0       42       25       10        4        0    16.131       74     40.2    6.484   -9.900     1.60    0.000    0.000       11        9     1987  Maize_short_Cahul_22May_NonOptimum_85_NCC.PRM
   Tot(8)       22        5     1988    215.6    496.5   1322.9   351.45      0.0    198.9     16.7     20.3      0.0    136.2       59    210.5    166.9       80     0.000     0.000     0.000     0.000      107        0       42       25        8       15       16    10.573       48     40.0    4.232   -9.900     1.22    0.000    0.000       11        9     1988  Maize_short_Cahul_22May_NonOptimum_85_NCC.PRM
   Tot(9)       22        5     1989    278.3    464.8   1227.8   352.89      0.0    269.4      8.9      0.8      0.0    130.8       68    277.9    214.9       98     0.000     0.000     0.000     0.000      107        0       42       25       11        5        1    16.020       73     40.1    6.426   -9.900     1.57    0.000    0.000       11        9     1989  Maize_short_Cahul_22May_NonOptimum_85_NCC.PRM
  Tot(10)       22        5     1990    134.6    519.4   1222.9   354.16      0.0    133.4      1.2      4.2      0.0    134.3       52    210.8    167.7       82     0.000     0.000     0.000     0.000      105        0       42       25       11       20       18    10.858       49     40.0    4.348   -9.900     1.26    0.000    0.000       11        9     1990  Maize_short_Cahul_22May_NonOptimum_85_NCC.PRM
  Tot(11)       22        5     1991    339.7    442.2   1261.6   355.48      0.0    294.4     45.3     75.9      0.0    115.8       67    276.1    212.4      100     0.000     0.000     0.000     0.000      107        0       42       25       10        2        0    16.678       75     40.1    6.687   -9.900     1.71    0.000    0.000       11        9     1991  Maize_short_Cahul_22May_NonOptimum_85_NCC.PRM
  Tot(12)       22        5     1992    172.1    523.4   1310.7   356.27      0.0    171.3      0.8      0.0      0.0    144.3       66    238.3    187.2       79     0.000     0.000     0.000     0.000      107        0       42       25        8       14       15    12.013       53     39.8    4.786   -9.900     1.25    0.000    0.000       11        9     1992  Maize_short_Cahul_22May_NonOptimum_85_NCC.PRM
  Tot(13)       22        5     1993    184.6    515.2   1213.1   356.95      0.0    177.7      6.9     14.6      0.0    114.5       50    251.4    195.1       90     0.000     0.000     0.000     0.000      107        0       42       25       12        7        7    13.380       65     40.1    5.368   -9.900     1.47    0.000    0.000       11        9     1993  Maize_short_Cahul_22May_NonOptimum_85_NCC.PRM
  Tot(14)       22        5     1994    229.2    520.8   1387.8   358.63      0.0    210.6     18.6     40.3      0.0    104.3       44    270.1    211.4       90     0.000     0.000     0.000     0.000      107        0       42       25        7        9        8    14.707       63     40.2    5.917   -9.900     1.58    0.000    0.000       11        9     1994  Maize_short_Cahul_22May_NonOptimum_85_NCC.PRM
  Tot(15)       22        5     1995    194.2    524.5   1401.1   360.62      0.0    189.8      4.4      0.3      0.0    116.9       46    243.9    191.4       88     0.000     0.000     0.000     0.000      107        0       42       25        3       13        9    13.202       58     40.3    5.317   -9.900     1.47    0.000    0.000       11        9     1995  Maize_short_Cahul_22May_NonOptimum_85_NCC.PRM
  Tot(16)       22        5     1996    152.9    537.6   1282.2   362.37      0.0    143.3      9.6      0.4      0.0     97.4       31    204.1    164.0       87     0.000     0.000     0.000     0.000      107        0       42       25        9       27        7    11.290       52     40.7    4.595   -9.900     1.52    0.000    0.000       11        9     1996  Maize_short_Cahul_22May_NonOptimum_85_NCC.PRM
  Tot(17)       22        5     1997    432.8    444.0   1221.9   363.47      0.0    383.5     49.3     17.3      0.0    148.6       78    259.9    201.1      100     0.000     0.000     0.000     0.000      107        0       42       25       10        1        0    16.771       75     40.0    6.712   -9.900     1.64    0.000    0.000       11        9     1997  Maize_short_Cahul_22May_NonOptimum_85_NCC.PRM
  Tot(18)       22        5     1998    180.5    509.6   1309.0   366.50      0.0    177.7      2.8      0.0      0.0    130.0       58    239.8    187.2       85     0.000     0.000     0.000     0.000      107        0       42       25        8        8       11    12.334       57     40.0    4.933   -9.900     1.33    0.000    0.000       11        9     1998  Maize_short_Cahul_22May_NonOptimum_85_NCC.PRM
  Tot(19)       22        5     1999    308.1    540.3   1455.6   368.14      0.0    295.8     12.3     14.0      0.0    143.6       56    302.8    234.8       99     0.000     0.000     0.000     0.000      107        0       42       25        3       11        1    16.563       71     40.6    6.733   -9.900     1.51    0.000    0.000       11        9     1999  Maize_short_Cahul_22May_NonOptimum_85_NCC.PRM
  Tot(20)       22        5     2000    130.9    589.8   1344.8   369.41      0.0    120.7     10.2      0.0      0.0     97.4       28    199.7    160.6       79     0.000     0.000     0.000     0.000      107        0       42       25        7       21       16     9.657       43     40.0    3.866   -9.900     1.30    0.000    0.000       11        9     2000  Maize_short_Cahul_22May_NonOptimum_85_NCC.PRM
  Tot(21)       22        5     2001    279.5    543.9   1369.9   371.07      0.0    230.6     48.9     24.2      0.0    149.2       55    207.6    163.4       77     0.000     0.000     0.000     0.000       99        0       42       25        6       18       20    10.009       43     35.9    3.594   -9.900     1.04    0.000    0.000       11        9     2001  Maize_short_Cahul_22May_NonOptimum_85_NCC.PRM
  Tot(22)       22        5     2002    292.1    558.8   1450.8   373.16      0.0    255.3     36.8      0.0      0.0    114.8       41    303.8    237.8      100     0.000     0.000     0.000     0.000      107        0       42       25        4       15        0    16.489       69     40.0    6.597   -9.900     1.58    0.000    0.000       11        9     2002  Maize_short_Cahul_22May_NonOptimum_85_NCC.PRM
  Tot(23)       22        5     2003    116.6    575.5   1394.8   375.80      0.0    116.5      0.1      0.0      0.0    105.7       34    221.9    176.4       82     0.000     0.000     0.000     0.000      107        0       42       25        6       17       16    11.636       52     39.7    4.620   -9.900     1.41    0.000    0.000       11        9     2003  Maize_short_Cahul_22May_NonOptimum_85_NCC.PRM
  Tot(24)       22        5     2004    264.5    517.1   1270.8   377.49      0.0    258.7      5.8      1.7      0.0    127.4       55    294.4    229.1      100     0.000     0.000     0.000     0.000      107        0       42       25        9        6        0    16.498       74     40.2    6.631   -9.900     1.57    0.000    0.000       11        9     2004  Maize_short_Cahul_22May_NonOptimum_85_NCC.PRM
  Tot(25)       22        5     2005    340.5    530.1   1378.5   379.80      0.0    324.9     15.6      7.2      0.0    155.4       67    317.3    243.9      100     0.000     0.000     0.000     0.000      107        0       42       25        5        2        0    17.621       75     40.0    7.054   -9.900     1.49    0.000    0.000       11        9     2005  Maize_short_Cahul_22May_NonOptimum_85_NCC.PRM
  Tot(26)       22        5     2006    165.3    572.9   1356.3   381.90      0.0    162.9      2.4      0.0      0.0    124.3       41    230.5    184.8       82     0.000     0.000     0.000     0.000      107        0       42       25        7       27       12    11.758       51     40.6    4.773   -9.900     1.35    0.000    0.000       11        9     2006  Maize_short_Cahul_22May_NonOptimum_85_NCC.PRM
  Tot(27)       22        5     2007    154.6    656.0   1505.6   383.77      0.0    153.3      1.3      0.0      0.0    127.0       32    225.1    180.5       80     0.000     0.000     0.000     0.000      107        0       42       25        3       31       12    10.407       45     40.5    4.218   -9.900     1.20    0.000    0.000       11        9     2007  Maize_short_Cahul_22May_NonOptimum_85_NCC.PRM
  Tot(28)       22        5     2008    135.9    609.6   1430.9   385.59      0.0    135.2      0.7      0.6      0.0    124.8       39    228.9    182.6       78     0.000     0.000     0.000     0.000      107        0       42       25        3       20       19    10.856       46     39.6    4.304   -9.900     1.22    0.000    0.000       11        9     2008  Maize_short_Cahul_22May_NonOptimum_85_NCC.PRM
  Tot(29)       22        5     2009    193.1    608.5   1428.8   387.37      0.0    186.0      7.1      0.0      0.0    132.2       42    241.1    189.3       81     0.000     0.000     0.000     0.000      107        0       42       25        4       18       16    11.138       47     40.1    4.468   -9.900     1.20    0.000    0.000       11        9     2009  Maize_short_Cahul_22May_NonOptimum_85_NCC.PRM
  Tot(30)       22        5     2010    262.4    544.9   1456.8   389.85      0.0    244.4     18.0     23.9      0.0    128.7       53    284.3    219.8       90     0.000     0.000     0.000     0.000      107        0       42       25        5        4        7    14.944       65     39.8    5.947   -9.900     1.44    0.000    0.000       11        9     2010  Maize_short_Cahul_22May_NonOptimum_85_NCC.PRM
  Tot(31)       22        5     2011    160.8    575.7   1434.7   391.63      0.0    157.7      3.1      5.8      0.0    126.0       47    245.7    193.3       78     0.000     0.000     0.000     0.000      107        0       42       25        3       14       18    12.353       52     39.7    4.908   -9.900     1.32    0.000    0.000       11        9     2011  Maize_short_Cahul_22May_NonOptimum_85_NCC.PRM
  Tot(32)       22        5     2012    196.3    639.5   1494.0   393.82      0.0    189.7      6.6      8.8      0.0    148.0       47    246.7    195.6       76     0.000     0.000     0.000     0.000      107        0       42       25        3       24       19    10.916       46     40.2    4.383   -9.900     1.11    0.000    0.000       11        9     2012  Maize_short_Cahul_22May_NonOptimum_85_NCC.PRM
  Tot(33)       22        5     2013    252.7    563.0   1428.9   396.48      0.0    239.0     13.7     14.7      0.0    144.5       57    275.7    214.5       86     0.000     0.000     0.000     0.000      107        0       42       25        3        8       10    14.229       60     40.0    5.696   -9.900     1.36    0.000    0.000       11        9     2013  Maize_short_Cahul_22May_NonOptimum_85_NCC.PRM
  Tot(34)       22        5     2014    196.3    573.6   1463.6   398.55      0.0    193.6      2.7      4.1      0.0    147.2       60    268.2    210.3       80     0.000     0.000     0.000     0.000      107        0       42       25        3       10       16    13.352       56     39.6    5.286   -9.900     1.27    0.000    0.000       11        9     2014  Maize_short_Cahul_22May_NonOptimum_85_NCC.PRM
  Tot(35)       22        5     2015    138.9    636.7   1471.6   402.00      0.0    136.7      2.2      0.0      0.0    116.3       36    235.7    186.1       74     0.000     0.000     0.000     0.000      107        0       42       25        4       20       19    10.978       46     40.0    4.386   -9.900     1.25    0.000    0.000       11        9     2015  Maize_short_Cahul_22May_NonOptimum_85_NCC.PRM
  Tot(36)       22        5     2016    164.9    587.5   1485.2   404.00      0.0    161.0      3.9      8.4      0.0    156.6       54    214.7    170.5       73     0.000     0.000     0.000     0.000      107        0       42       25        3       24       23    10.200       42     39.8    4.062   -9.900     1.09    0.000    0.000       11        9     2016  Maize_short_Cahul_22May_NonOptimum_85_NCC.PRM
  Tot(37)       22        5     2017    244.3    575.3   1442.4   407.00      0.0    217.3     27.0      1.4      0.0    121.3       49    311.7    241.7       91     0.000     0.000     0.000     0.000      107        0       42       25        3        6        9    15.508       65     39.9    6.190   -9.900     1.43    0.000    0.000       11        9     2017  Maize_short_Cahul_22May_NonOptimum_85_NCC.PRM
  Tot(38)       22        5     2018    162.1    570.8   1538.6   410.00      0.0    157.2      4.9      0.0      0.0     92.0       33    276.6    215.6       88     0.000     0.000     0.000     0.000      107        0       42       25        2        8       10    14.907       62     39.6    5.910   -9.900     1.60    0.000    0.000       11        9     2018  Maize_short_Cahul_22May_NonOptimum_85_NCC.PRM
  Tot(39)       22        5     2019    162.8    617.9   1528.8   413.00      0.0    161.5      1.3      0.0      0.0    164.0       51    219.7    174.0       76     0.000     0.000     0.000     0.000      105        0       42       25        1       20       21    10.934       45     39.4    4.308   -9.900     1.12    0.000    0.000       11        9     2019  Maize_short_Cahul_22May_NonOptimum_85_NCC.PRM
  Tot(40)       22        5     2020    122.5    582.4   1355.5   416.00      0.0    111.7     10.8     16.6      0.0    114.4       36    197.0    156.0       77     0.000     0.000     0.000     0.000       97        0       42       25        9       23       19     9.536       39     33.8    3.223   -9.900     1.04    0.000    0.000       11        9     2020  Maize_short_Cahul_22May_NonOptimum_85_NCC.PRM
  Tot(41)       22        5     2021    138.1    584.2   1361.6   419.00      0.0    136.8      1.3      0.0      0.0    120.7       43    234.8    183.6       80     0.000     0.000     0.000     0.000      101        0       42       25        6       12       19    10.936       46     37.7    4.125   -9.900     1.16    0.000    0.000       11        9     2021  Maize_short_Cahul_22May_NonOptimum_85_NCC.PRM
  Tot(42)       22        5     2022    151.9    482.0   1127.9   422.00      0.0    141.6     10.3     23.9      0.0    119.1       59    215.4    168.0       83     0.000     0.000     0.000     0.000      107        0       42       25       14        8       16    12.232       57     39.8    4.871   -9.900     1.46    0.000    0.000       11        9     2022  Maize_short_Cahul_22May_NonOptimum_85_NCC.PRM
  Tot(43)       22        5     2023    149.0    513.3   1171.2   425.00      0.0    133.1     15.9      0.0      0.0     89.4       36    225.7    178.3       88     0.000     0.000     0.000     0.000      107        0       42       25       15       25        6    12.367       58     40.8    5.045   -9.900     1.60    0.000    0.000       11        9     2023  Maize_short_Cahul_22May_NonOptimum_85_NCC.PRM
  Tot(44)       22        5     2024     63.4    638.3   1432.4   428.00      0.0     63.2      0.2      0.0      0.0     94.4       24    175.1    140.3       75     0.000     0.000     0.000     0.000       92        0       42       25        1       28       19     7.868       33     29.0    2.279   -9.900     0.85    0.000    0.000       11        9     2024  Maize_short_Cahul_22May_NonOptimum_85_NCC.PRM
  Tot(45)       22        5     2025    172.9    551.9   1343.9   431.00      0.0    167.2      5.7      7.6      0.0    151.7       58    218.4    171.4       79     0.000     0.000     0.000     0.000      100        0       42       25        5       17       18    10.665       45     37.1    3.957   -9.900     1.08    0.000    0.000       11        9     2025  Maize_short_Cahul_22May_NonOptimum_85_NCC.PRM
  Tot(46)       22        5     2026    481.4    441.0   1068.0   435.00      0.0    331.8    149.6    124.4      0.0    129.9       71    238.3    182.3      100     0.000     0.000     0.000     0.000      107        0       42       25       17        0        1    15.890       75     40.0    6.356   -9.900     1.73    0.000    0.000       11        9     2026  Maize_short_Cahul_22May_NonOptimum_85_NCC.PRM
  Tot(47)       22        5     2027     64.2    543.1   1242.2   438.00      0.0     62.1      2.1      2.0      0.0     88.2       32    186.4    148.6       77     0.000     0.000     0.000     0.000       99        0       42       25       13       19       19     9.962       42     35.9    3.579   -9.900     1.31    0.000    0.000       11        9     2027  Maize_short_Cahul_22May_NonOptimum_85_NCC.PRM
  Tot(48)       22        5     2028    156.4    598.9   1385.6   442.00      0.0    139.4     17.0     36.9      0.0    125.3       39    186.9    148.2       73     0.000     0.000     0.000     0.000       92        0       42       25        4       24       21     8.704       36     28.7    2.495   -9.900     0.81    0.000    0.000       11        9     2028  Maize_short_Cahul_22May_NonOptimum_85_NCC.PRM
  Tot(49)       22        5     2029     48.6    606.1   1366.7   445.00      0.0     47.9      0.7      0.5      0.0     82.3       22    170.1    136.2       76     0.000     0.000     0.000     0.000       92        0       42       25        8       30       19     7.914       33     29.3    2.319   -9.900     0.93    0.000    0.000       11        9     2029  Maize_short_Cahul_22May_NonOptimum_85_NCC.PRM
  Tot(50)       22        5     2030     34.1    678.4   1502.1   449.00      0.0     34.1      0.0      0.0      0.0     73.2       15    156.1    127.5       78     0.000     0.000     0.000     0.000       89        0       42       25        5       37       17     6.406       26     26.2    1.677   -9.900     0.74    0.000    0.000       11        9     2030  Maize_short_Cahul_22May_NonOptimum_85_NCC.PRM
  Tot(51)       22        5     2031     65.2    576.7   1282.6   452.00      0.0     64.7      0.5      0.6      0.0     95.2       30    177.3    140.6       75     0.000     0.000     0.000     0.000       93        0       42       25        6       24       19     8.722       37     30.2    2.631   -9.900     0.98    0.000    0.000       11        9     2031  Maize_short_Cahul_22May_NonOptimum_85_NCC.PRM
  Tot(52)       22        5     2032     78.3    607.3   1370.8   456.00      0.0     78.1      0.2      0.0      0.0    103.8       28    175.0    140.7       76     0.000     0.000     0.000     0.000       93        0       42       25        3       31       18     8.079       36     30.3    2.452   -9.900     0.89    0.000    0.000       11        9     2032  Maize_short_Cahul_22May_NonOptimum_85_NCC.PRM
  Tot(53)       22        5     2033     58.0    626.2   1389.2   460.00      0.0     58.0      0.0      0.0      0.0     93.5       24    168.4    135.1       76     0.000     0.000     0.000     0.000       91        0       42       25        2       31       19     7.871       33     28.0    2.203   -9.900     0.86    0.000    0.000       11        9     2033  Maize_short_Cahul_22May_NonOptimum_85_NCC.PRM
  Tot(54)       22        5     2034    125.1    507.8   1231.3   464.00      0.0    123.1      2.0      3.6      0.0    120.1       51    214.5    169.0       81     0.000     0.000     0.000     0.000      107        0       42       25        9       24       16    12.258       53     40.4    4.950   -9.900     1.48    0.000    0.000       11        9     2034  Maize_short_Cahul_22May_NonOptimum_85_NCC.PRM
  Tot(55)       22        5     2035     72.4    599.1   1383.5   468.00      0.0     71.4      1.0      0.0      0.0     97.4       30    188.3    149.6       74     0.000     0.000     0.000     0.000       95        0       42       25        4       23       20     9.342       39     31.9    2.976   -9.900     1.05    0.000    0.000       11        9     2035  Maize_short_Cahul_22May_NonOptimum_85_NCC.PRM
  Tot(56)       22        5     2036    184.1    501.4   1201.7   472.00      0.0    174.3      9.8      4.4      0.0    100.5       47    251.9    194.9       92     0.000     0.000     0.000     0.000      107        0       42       25       13        3        6    14.565       68     39.9    5.808   -9.900     1.65    0.000    0.000       11        9     2036  Maize_short_Cahul_22May_NonOptimum_85_NCC.PRM
  Tot(57)       22        5     2037     90.1    600.9   1439.6   476.00      0.0     89.5      0.6      0.0      0.0    107.9       31    184.9    147.6       77     0.000     0.000     0.000     0.000       97        0       42       25        4       27       18     9.281       38     34.4    3.190   -9.900     1.11    0.000    0.000       11        9     2037  Maize_short_Cahul_22May_NonOptimum_85_NCC.PRM
  Tot(58)       22        5     2038    147.1    622.3   1425.7   481.00      0.0    129.9     17.2     18.7      0.0    136.7       39    184.2    146.6       74     0.000     0.000     0.000     0.000       92        0       42       25        4       26       20     8.633       35     28.7    2.480   -9.900     0.78    0.000    0.000       11        9     2038  Maize_short_Cahul_22May_NonOptimum_85_NCC.PRM
  Tot(59)       22        5     2039     84.2    602.7   1383.4   485.00      0.0     83.3      0.9      0.3      0.0    113.6       32    177.5    141.5       76     0.000     0.000     0.000     0.000       94        0       42       25        6       27       19     8.834       36     31.0    2.738   -9.900     0.95    0.000    0.000       11        9     2039  Maize_short_Cahul_22May_NonOptimum_85_NCC.PRM
  Tot(60)       22        5     2040    115.7    593.0   1388.4   489.00      0.0    115.6      0.1      0.0      0.0    131.3       41    189.8    150.7       75     0.000     0.000     0.000     0.000       93        0       42       25        3       25       20     9.146       38     30.0    2.745   -9.900     0.90    0.000    0.000       11        9     2040  Maize_short_Cahul_22May_NonOptimum_85_NCC.PRM
  Tot(61)       22        5     2041    213.7    531.7   1325.2   494.00      0.0    197.9     15.8     24.8      0.0    148.3       72    247.9    192.5       81     0.000     0.000     0.000     0.000      107        0       42       25        5        4       18    13.178       54     39.2    5.166   -9.900     1.30    0.000    0.000       11        9     2041  Maize_short_Cahul_22May_NonOptimum_85_NCC.PRM
  Tot(62)       22        5     2042      7.9    704.0   1554.0   499.00      0.0      7.9      0.0      0.0      0.0     48.7       10    158.8    129.3       76     0.000     0.000     0.000     0.000       90        0       42       25        3       35       18     6.870       28     27.1    1.858   -9.900     0.90    0.000    0.000       11        9     2042  Maize_short_Cahul_22May_NonOptimum_85_NCC.PRM
  Tot(63)       22        5     2043     91.6    565.2   1445.0   504.00      0.0     91.2      0.4      0.0      0.0     84.4       30    222.1    174.3       80     0.000     0.000     0.000     0.000      107        0       42       25        3       19       15    12.602       51     40.3    5.073   -9.900     1.66    0.000    0.000       11        9     2043  Maize_short_Cahul_22May_NonOptimum_85_NCC.PRM
  Tot(64)       22        5     2044    124.3    554.5   1322.0   508.00      0.0    124.3      0.0      0.0      0.0    135.6       47    193.7    153.2       77     0.000     0.000     0.000     0.000       97        0       42       25        3       21       19    10.080       43     33.9    3.418   -9.900     1.06    0.000    0.000       11        9     2044  Maize_short_Cahul_22May_NonOptimum_85_NCC.PRM
  Tot(65)       22        5     2045    156.9    564.5   1297.1   513.00      0.0    136.1     20.8     29.9      0.0    117.8       41    193.0    152.5       75     0.000     0.000     0.000     0.000       96        0       42       25        9       23       20     9.315       39     32.9    3.067   -9.900     1.01    0.000    0.000       11        9     2045  Maize_short_Cahul_22May_NonOptimum_85_NCC.PRM
  Tot(66)       22        5     2046     83.3    591.2   1395.7   519.00      0.0     77.9      5.4     11.9      0.0     98.0       29    175.7    140.3       76     0.000     0.000     0.000     0.000       93        0       42       25        2       28       19     8.872       36     29.9    2.656   -9.900     0.98    0.000    0.000       11        9     2046  Maize_short_Cahul_22May_NonOptimum_85_NCC.PRM
  Tot(67)       22        5     2047     60.2    579.0   1375.6   524.00      0.0     60.2      0.0      0.0      0.0     91.9       29    180.0    142.5       77     0.000     0.000     0.000     0.000       97        0       42       25        5       23       19     9.737       39     34.0    3.309   -9.900     1.23    0.000    0.000       11        9     2047  Maize_short_Cahul_22May_NonOptimum_85_NCC.PRM
  Tot(68)       22        5     2048    162.8    606.8   1420.8   529.00      0.0    138.9     23.9     47.1      0.0    114.4       36    188.0    148.8       74     0.000     0.000     0.000     0.000       93        0       42       25        6       23       20     9.005       36     29.7    2.678   -9.900     0.89    0.000    0.000       11        9     2048  Maize_short_Cahul_22May_NonOptimum_85_NCC.PRM
  Tot(69)       22        5     2049     90.8    538.1   1315.2   535.00      0.0     89.2      1.6      0.0      0.0    107.2       40    198.3    156.2       80     0.000     0.000     0.000     0.000      102        0       42       25        6       20       18    11.269       46     39.0    4.400   -9.900     1.44    0.000    0.000       11        9     2049  Maize_short_Cahul_22May_NonOptimum_85_NCC.PRM
  Tot(70)       22        5     2050    112.7    504.5   1245.4   541.00      0.0    111.4      1.3      0.7      0.0    120.3       54    209.2    164.1       80     0.000     0.000     0.000     0.000      106        0       42       25        9       14       18    12.338       51     39.8    4.912   -9.900     1.49    0.000    0.000       11        9     2050  Maize_short_Cahul_22May_NonOptimum_85_NCC.PRM
  Tot(71)       22        5     2051    234.8    461.3   1238.9   546.00      0.0    228.3      6.5      2.8      0.0    131.0       67    261.0    200.8      100     0.000     0.000     0.000     0.000      107        0       42       25        6        1        0    17.868       75     40.0    7.147   -9.900     1.82    0.000    0.000       11        9     2051  Maize_short_Cahul_22May_NonOptimum_85_NCC.PRM
  Tot(72)       22        5     2052    130.1    627.5   1527.6   552.00      0.0    110.5     19.6     20.4      0.0    114.7       32    184.4    147.7       75     0.000     0.000     0.000     0.000       93        0       42       25        3       25       20     8.839       35     30.1    2.659   -9.900     0.93    0.000    0.000       11        9     2052  Maize_short_Cahul_22May_NonOptimum_85_NCC.PRM
  Tot(73)       22        5     2053    171.4    521.1   1346.2   558.00      0.0    158.0     13.4     30.4      0.0    121.0       55    225.1    175.9       81     0.000     0.000     0.000     0.000      103        0       42       25        9       11       19    11.994       48     39.7    4.760   -9.900     1.38    0.000    0.000       11        9     2053  Maize_short_Cahul_22May_NonOptimum_85_NCC.PRM
  Tot(74)       22        5     2054    171.6    565.3   1396.0   564.00      0.0    142.2     29.4     43.0      0.0    119.1       42    195.2    153.9       78     0.000     0.000     0.000     0.000       97        0       42       25        4       20       19    10.405       42     34.0    3.540   -9.900     1.13    0.000    0.000       11        9     2054  Maize_short_Cahul_22May_NonOptimum_85_NCC.PRM
  Tot(75)       22        5     2055    187.3    562.7   1299.4   571.00      0.0    174.4     12.9     20.8      0.0    156.4       59    215.8    168.9       80     0.000     0.000     0.000     0.000      102        0       42       25        6       13       19    11.592       48     38.7    4.481   -9.900     1.21    0.000    0.000       11        9     2055  Maize_short_Cahul_22May_NonOptimum_85_NCC.PRM
  Tot(76)       22        5     2056     50.2    718.5   1685.9   577.00      0.0     50.2      0.0      0.0      0.0     87.0       18    160.9    130.5       75     0.000     0.000     0.000     0.000       89        0       42       25        0       34       18     6.853       27     26.1    1.786   -9.900     0.74    0.000    0.000       11        9     2056  Maize_short_Cahul_22May_NonOptimum_85_NCC.PRM
  Tot(77)       22        5     2057    152.1    574.6   1450.0   583.00      0.0    139.7     12.4     13.5      0.0    106.9       43    242.0    188.8       80     0.000     0.000     0.000     0.000      107        0       42       25        4        8       19    12.751       51     39.2    5.002   -9.900     1.43    0.000    0.000       11        9     2057  Maize_short_Cahul_22May_NonOptimum_85_NCC.PRM
  Tot(78)       22        5     2058     67.6    640.5   1464.5   590.00      0.0     66.8      0.8      0.9      0.0     94.3       26    174.4    138.7       72     0.000     0.000     0.000     0.000       91        0       42       25        6       26       20     8.337       33     27.8    2.314   -9.900     0.87    0.000    0.000       11        9     2058  Maize_short_Cahul_22May_NonOptimum_85_NCC.PRM
  Tot(79)       22        5     2059    100.9    645.2   1514.0   597.00      0.0     90.7     10.2      8.6      0.0    112.4       31    180.1    143.1       72     0.000     0.000     0.000     0.000       92        0       42       25        4       24       20     8.643       34     29.0    2.505   -9.900     0.87    0.000    0.000       11        9     2059  Maize_short_Cahul_22May_NonOptimum_85_NCC.PRM
  Tot(80)       22        5     2060    141.2    500.0   1223.2   604.00      0.0    135.8      5.4      4.6      0.0     96.6       44    247.4    190.8       92     0.000     0.000     0.000     0.000      107        0       42       25       11        4        7    15.974       67     39.9    6.377   -9.900     1.85    0.000    0.000       11        9     2060  Maize_short_Cahul_22May_NonOptimum_85_NCC.PRM
  Tot(81)       22        5     2061    150.9    581.6   1381.1   611.00      0.0    135.4     15.5     37.8      0.0    105.8       41    213.8    169.6       73     0.000     0.000     0.000     0.000      107        0       42       25        7       21       23    11.208       45     39.5    4.424   -9.900     1.38    0.000    0.000       11        9     2061  Maize_short_Cahul_22May_NonOptimum_85_NCC.PRM
  Tot(82)       22        5     2062     85.7    650.8   1531.6   618.00      0.0     83.6      2.1      3.5      0.0    111.7       30    173.7    138.9       73     0.000     0.000     0.000     0.000       90        0       42       25        4       29       20     8.272       33     27.1    2.246   -9.900     0.79    0.000    0.000       11        9     2062  Maize_short_Cahul_22May_NonOptimum_85_NCC.PRM
  Tot(83)       22        5     2063     37.3    661.0   1535.2   625.00      0.0     37.3      0.0      0.0      0.0     73.9       18    167.1    134.2       76     0.000     0.000     0.000     0.000       91        0       42       25        3       31       19     7.986       32     28.0    2.237   -9.900     0.93    0.000    0.000       11        9     2063  Maize_short_Cahul_22May_NonOptimum_85_NCC.PRM
  Tot(84)       22        5     2064     69.8    637.2   1525.1   632.00      0.0     69.0      0.8      1.1      0.0     98.6       27    174.8    139.5       74     0.000     0.000     0.000     0.000       91        0       42       25        6       29       20     8.167       33     27.8    2.274   -9.900     0.84    0.000    0.000       11        9     2064  Maize_short_Cahul_22May_NonOptimum_85_NCC.PRM
  Tot(85)       22        5     2065    154.4    620.8   1550.6   639.00      0.0    144.5      9.9     11.6      0.0    142.8       45    206.4    162.6       77     0.000     0.000     0.000     0.000       97        0       42       25        1       20       20    10.346       41     33.9    3.505   -9.900     1.01    0.000    0.000       11        9     2065  Maize_short_Cahul_22May_NonOptimum_85_NCC.PRM
  Tot(86)       22        5     2066     16.5    695.0   1622.1   647.00      0.0     16.5      0.0      0.0      0.0     57.9       13    160.7    129.8       73     0.000     0.000     0.000     0.000       91        0       42       25        1       32       19     7.346       29     28.0    2.056   -9.900     0.95    0.000    0.000       11        9     2066  Maize_short_Cahul_22May_NonOptimum_85_NCC.PRM
  Tot(87)       22        5     2067    125.9    690.4   1640.0   654.00      0.0    116.0      9.9     17.5      0.0    128.0       30    174.0    139.9       76     0.000     0.000     0.000     0.000       90        0       42       25        1       32       19     7.897       31     26.9    2.128   -9.900     0.71    0.000    0.000       11        9     2067  Maize_short_Cahul_22May_NonOptimum_85_NCC.PRM
  Tot(88)       22        5     2068     69.6    627.2   1503.2   662.00      0.0     69.2      0.4      0.0      0.0    101.2       28    174.0    139.1       76     0.000     0.000     0.000     0.000       93        0       42       25        2       29       19     8.653       35     30.0    2.595   -9.900     0.95    0.000    0.000       11        9     2068  Maize_short_Cahul_22May_NonOptimum_85_NCC.PRM
  Tot(89)       22        5     2069    144.4    565.4   1434.4   669.00      0.0    136.6      7.8     19.2      0.0    126.8       47    211.9    167.0       78     0.000     0.000     0.000     0.000      107        0       42       25        3       19       21    11.944       48     39.6    4.725   -9.900     1.39    0.000    0.000       11        9     2069  Maize_short_Cahul_22May_NonOptimum_85_NCC.PRM
  Tot(90)       22        5     2070     83.4    600.5   1467.4   677.00      0.0     82.6      0.8      1.9      0.0    101.6       32    185.1    146.9       76     0.000     0.000     0.000     0.000       94        0       42       25        6       26       19     9.273       37     30.9    2.866   -9.900     1.02    0.000    0.000       11        9     2070  Maize_short_Cahul_22May_NonOptimum_85_NCC.PRM
  Tot(91)       22        5     2071    132.3    614.0   1563.8   685.00      0.0    121.2     11.1     11.2      0.0     99.7       33    229.8    179.9       80     0.000     0.000     0.000     0.000      104        0       42       25        1       12       19    11.860       47     39.5    4.683   -9.900     1.43    0.000    0.000       11        9     2071  Maize_short_Cahul_22May_NonOptimum_85_NCC.PRM
  Tot(92)       22        5     2072    178.0    543.8   1487.3   693.00      0.0    166.6     11.4     24.1      0.0    118.3       49    240.3    187.4       84     0.000     0.000     0.000     0.000      107        0       42       25        3       11       13    13.904       57     40.1    5.571   -9.900     1.55    0.000    0.000       11        9     2072  Maize_short_Cahul_22May_NonOptimum_85_NCC.PRM
  Tot(93)       22        5     2073    219.1    574.8   1489.8   701.00      0.0    147.9     71.2     59.6      0.0    117.6       38    176.3    140.8       76     0.000     0.000     0.000     0.000       93        0       42       25        3       27       20     8.992       36     30.0    2.700   -9.900     0.94    0.000    0.000       11        9     2073  Maize_short_Cahul_22May_NonOptimum_85_NCC.PRM
  Tot(94)       22        5     2074     77.6    688.1   1707.0   709.00      0.0     75.7      1.9      8.1      0.0    102.9       23    161.1    130.6       77     0.000     0.000     0.000     0.000       90        0       42       25        0       35       19     7.008       28     27.2    1.903   -9.900     0.74    0.000    0.000       11        9     2074  Maize_short_Cahul_22May_NonOptimum_85_NCC.PRM
  Tot(95)       22        5     2075     67.1    631.5   1508.1   717.00      0.0     66.9      0.2      0.4      0.0    101.4       26    166.7    134.3       77     0.000     0.000     0.000     0.000       92        0       42       25        2       32       18     8.047       32     29.1    2.343   -9.900     0.92    0.000    0.000       11        9     2075  Maize_short_Cahul_22May_NonOptimum_85_NCC.PRM
  Tot(96)       22        5     2076    162.6    581.0   1505.8   725.00      0.0    151.8     10.8     16.5      0.0    140.1       52    212.4    166.4       77     0.000     0.000     0.000     0.000      100        0       42       25        2       13       20    11.153       45     36.5    4.074   -9.900     1.16    0.000    0.000       11        9     2076  Maize_short_Cahul_22May_NonOptimum_85_NCC.PRM
  Tot(97)       22        5     2077     85.6    672.3   1578.4   733.00      0.0     83.4      2.2      0.0      0.0     90.7       23    170.7    136.3       73     0.000     0.000     0.000     0.000       91        0       42       25        0       28       20     7.903       32     27.9    2.203   -9.900     0.89    0.000    0.000       11        9     2077  Maize_short_Cahul_22May_NonOptimum_85_NCC.PRM
  Tot(98)       22        5     2078     52.3    664.8   1561.0   742.00      0.0     49.3      3.0      6.2      0.0     75.2       18    171.9    138.3       76     0.000     0.000     0.000     0.000       92        0       42       25        3       31       19     7.952       32     29.0    2.308   -9.900     0.95    0.000    0.000       11        9     2078  Maize_short_Cahul_22May_NonOptimum_85_NCC.PRM
  Tot(99)       22        5     2079     65.1    592.9   1548.7   750.00      0.0     64.9      0.2      0.0      0.0     96.0       28    176.0    140.5       78     0.000     0.000     0.000     0.000       96        0       42       25        3       29       18     9.046       37     33.2    3.001   -9.900     1.12    0.000    0.000       11        9     2079  Maize_short_Cahul_22May_NonOptimum_85_NCC.PRM
 Tot(100)       22        5     2080     62.8    592.8   1423.2   758.00      0.0     62.6      0.2      0.0      0.0     90.0       28    182.8    144.9       78     0.000     0.000     0.000     0.000       97        0       42       25        9       23       18     9.788       39     34.3    3.353   -9.900     1.23    0.000    0.000       11        9     2080  Maize_short_Cahul_22May_NonOptimum_85_NCC.PRM
 Tot(101)       22        5     2081     62.8    635.7   1552.3   767.00      0.0     61.7      1.1      2.6      0.0     89.7       25    174.6    139.3       74     0.000     0.000     0.000     0.000       92        0       42       25        3       28       20     8.260       34     28.9    2.390   -9.900     0.92    0.000    0.000       11        9     2081  Maize_short_Cahul_22May_NonOptimum_85_NCC.PRM
 Tot(102)       22        5     2082    213.5    532.6   1514.4   775.00      0.0    199.5     14.0     17.7      0.0    135.9       63    263.0    204.7       88     0.000     0.000     0.000     0.000      107        0       42       25        4       18       10    15.472       63     40.6    6.283   -9.900     1.57    0.000    0.000       11        9     2082  Maize_short_Cahul_22May_NonOptimum_85_NCC.PRM
 Tot(103)       22        5     2083     77.2    614.0   1607.4   784.00      0.0     77.2      0.0      0.0      0.0    102.7       31    181.6    145.0       77     0.000     0.000     0.000     0.000      107        0       42       25        1       25       28     9.129       37     32.3    2.952   -9.900     1.04    0.000    0.000       11        9     2083  Maize_short_Cahul_22May_NonOptimum_85_NCC.PRM
 Tot(104)       22        5     2084    100.6    559.3   1448.8   792.00      0.0    100.3      0.3      0.0      0.0     78.6       33    244.4    190.1       82     0.000     0.000     0.000     0.000      107        0       42       25        6        5       13    14.631       60     39.4    5.771   -9.900     1.79    0.000    0.000       11        9     2084  Maize_short_Cahul_22May_NonOptimum_85_NCC.PRM
 Tot(105)       22        5     2085     29.7    739.9   1778.0   801.00      0.0     29.7      0.0      0.0      0.0     72.3       13    156.6    128.8       78     0.000     0.000     0.000     0.000       97        0       42       25        0       36       16     6.987       28     29.6    2.070   -9.900     0.91    0.000    0.000       11        9     2085  Maize_short_Cahul_22May_NonOptimum_85_NCC.PRM
 Tot(106)       22        5     2086     90.8    596.5   1541.9   810.00      0.0     90.5      0.3      0.0      0.0     97.0       33    214.1    168.3       79     0.000     0.000     0.000     0.000      107        0       42       25        2       13       19    12.027       50     39.3    4.726   -9.900     1.52    0.000    0.000       11        9     2086  Maize_short_Cahul_22May_NonOptimum_85_NCC.PRM
 Tot(107)       22        5     2087    129.3    588.4   1488.2   818.00      0.0    126.5      2.8      7.5      0.0    129.7       47    206.1    161.8       78     0.000     0.000     0.000     0.000      100        0       42       25        5       18       20    10.763       44     36.7    3.952   -9.900     1.18    0.000    0.000       11        9     2087  Maize_short_Cahul_22May_NonOptimum_85_NCC.PRM
 Tot(108)       22        5     2088    159.9    651.2   1673.5   827.00      0.0    119.1     40.8     43.5      0.0    107.0       29    172.3    138.0       76     0.000     0.000     0.000     0.000       92        0       42       25        1       28       19     8.224       34     29.0    2.388   -9.900     0.87    0.000    0.000       11        9     2088  Maize_short_Cahul_22May_NonOptimum_85_NCC.PRM
 Tot(109)       22        5     2089     55.8    696.9   1598.3   836.00      0.0     55.8      0.0      0.0      0.0     90.0       21    170.1    136.8       77     0.000     0.000     0.000     0.000       92        0       42       25        4       31       19     7.988       33     29.0    2.319   -9.900     0.90    0.000    0.000       11        9     2089  Maize_short_Cahul_22May_NonOptimum_85_NCC.PRM
 Tot(110)       22        5     2090     68.2    672.6   1648.7   845.00      0.0     67.2      1.0      0.6      0.0    101.9       24    166.9    134.6       77     0.000     0.000     0.000     0.000       93        0       42       25        1       33       18     7.917       32     30.1    2.384   -9.900     0.90    0.000    0.000       11        9     2090  Maize_short_Cahul_22May_NonOptimum_85_NCC.PRM
 Tot(111)       22        5     2091    134.7    566.9   1555.0   854.00      0.0    127.2      7.5     22.8      0.0    112.5       44    210.0    164.6       79     0.000     0.000     0.000     0.000      102        0       42       25        1       14       19    11.384       47     38.7    4.401   -9.900     1.37    0.000    0.000       11        9     2091  Maize_short_Cahul_22May_NonOptimum_85_NCC.PRM
 Tot(112)       22        5     2092    102.0    679.1   1672.5   863.00      0.0    100.9      1.1      1.4      0.0    124.3       33    174.9    139.3       73     0.000     0.000     0.000     0.000       90        0       42       25        1       27       20     7.997       33     27.2    2.174   -9.900     0.74    0.000    0.000       11        9     2092  Maize_short_Cahul_22May_NonOptimum_85_NCC.PRM
 Tot(113)       22        5     2093    157.0    671.7   1722.2   872.00      0.0    155.0      2.0      0.0      0.0    155.7       48    214.3    168.1       75     0.000     0.000     0.000     0.000       96        0       42       25        1       17       21     9.950       41     32.5    3.233   -9.900     0.89    0.000    0.000       11        9     2093  Maize_short_Cahul_22May_NonOptimum_85_NCC.PRM
 Tot(114)       22        5     2094     54.0    636.3   1648.8   881.00      0.0     51.6      2.4      4.8      0.0     82.7       22    168.8    135.4       78     0.000     0.000     0.000     0.000       94        0       42       25        2       30       18     8.453       35     31.4    2.654   -9.900     1.06    0.000    0.000       11        9     2094  Maize_short_Cahul_22May_NonOptimum_85_NCC.PRM
 Tot(115)       22        5     2095    179.8    581.7   1605.8   890.00      0.0    165.9     13.9     23.4      0.0    152.8       57    205.1    161.0       78     0.000     0.000     0.000     0.000      100        0       42       25        1       15       19    10.756       45     36.7    3.952   -9.900     1.11    0.000    0.000       11        9     2095  Maize_short_Cahul_22May_NonOptimum_85_NCC.PRM
 Tot(116)       22        5     2096     99.1    694.5   1742.6   899.00      0.0     99.1      0.0      0.0      0.0    123.9       31    175.3    139.9       73     0.000     0.000     0.000     0.000       92        0       42       25        0       28       20     8.090       33     29.1    2.354   -9.900     0.81    0.000    0.000       11        9     2096  Maize_short_Cahul_22May_NonOptimum_85_NCC.PRM
 Tot(117)       22        5     2097     73.3    725.5   1726.0   908.00      0.0     73.1      0.2      0.0      0.0    106.8       22    171.2    138.3       79     0.000     0.000     0.000     0.000       96        0       42       25        1       32       18     8.261       35     33.2    2.743   -9.900     0.99    0.000    0.000       11        9     2097  Maize_short_Cahul_22May_NonOptimum_85_NCC.PRM
 Tot(118)       22        5     2098    172.0    615.1   1619.3   917.00      0.0    155.4     16.6     27.2      0.0    124.2       44    221.5    173.7       79     0.000     0.000     0.000     0.000      103        0       42       25        2       14       19    11.276       47     39.6    4.465   -9.900     1.29    0.000    0.000       11        9     2098  Maize_short_Cahul_22May_NonOptimum_85_NCC.PRM
 Tot(119)       22        5     2099     71.6    615.9   1579.4   927.00      0.0     70.5      1.1      0.0      0.0     87.1       29    202.2    158.6       77     0.000     0.000     0.000     0.000      103        0       42       25        2       12       19    10.946       46     39.2    4.296   -9.900     1.49    0.000    0.000       11        9     2099  Maize_short_Cahul_22May_NonOptimum_85_NCC.PRM
