AquaCrop 7.0 (August 2022) - Output created on (date) : 23-11-2022   at (time) : 12:19:46

    RunNr     Day1   Month1    Year1     Rain      ETo       GD     CO2      Irri   Infilt   Runoff    Drain   Upflow        E     E/Ex       Tr      TrW   Tr/Trx    SaltIn   SaltOut    SaltUp  SaltProf     Cycle   SaltStr  FertStr  WeedStr  TempStr   ExpStr   StoStr  BioMass  Brelative   HI    Y(dry)  Y(fresh)    WPet      Bin     Bout     DayN   MonthN    YearN
                                           mm       mm  degC.day    ppm        mm       mm       mm       mm       mm       mm        %       mm       mm        %    ton/ha    ton/ha    ton/ha    ton/ha      days       %        %        %        %        %        %    ton/ha        %       %    ton/ha   ton/ha    kg/m3   ton/ha   ton/ha
   Tot(1)        6        6     1981    323.6    420.3   1169.7   340.11      0.0    268.1     55.5     55.9      0.0    129.2       64    209.4    161.8      100     0.000     0.000     0.000     0.000      107        0       42       25       19        7        0    13.652       75     40.4    5.513   -9.900     1.63    0.000    0.000       26        9     1981  Maize_Short_Soroca_6June_NonOptimum_85_MPI.PRM
   Tot(2)        6        6     1982    276.8    416.0   1171.0   341.22      0.0    237.3     39.5     48.6      0.0    148.1       82    232.7    181.3       97     0.000     0.000     0.000     0.000      107        0       42       25       12        3        3    15.472       72     40.2    6.214   -9.900     1.63    0.000    0.000       26        9     1982  Maize_Short_Soroca_6June_NonOptimum_85_MPI.PRM
   Tot(3)        6        6     1983    213.6    428.2   1169.7   342.84      0.0    208.8      4.8      6.9      0.0    121.7       64    228.0    177.0      100     0.000     0.000     0.000     0.000      107        0       42       25       13        1        0    15.114       75     40.0    6.047   -9.900     1.73    0.000    0.000       26        9     1983  Maize_Short_Soroca_6June_NonOptimum_85_MPI.PRM
   Tot(4)        6        6     1984    282.0    406.7   1061.7   344.40      0.0    268.3     13.7     12.2      0.0    154.8       87    216.6    166.7      100     0.000     0.000     0.000     0.000      107        0       42       25       20        1        0    14.959       76     40.1    5.996   -9.900     1.61    0.000    0.000       26        9     1984  Maize_Short_Soroca_6June_NonOptimum_85_MPI.PRM
   Tot(5)        6        6     1985    357.2    428.1   1082.1   345.87      0.0    308.6     48.6     56.8      0.0    145.6       82    232.9    181.8      100     0.000     0.000     0.000     0.000      107        0       42       25       23        2        1    13.876       75     40.1    5.558   -9.900     1.47    0.000    0.000       26        9     1985  Maize_Short_Soroca_6June_NonOptimum_85_MPI.PRM
   Tot(6)        6        6     1986    147.6    489.6   1212.2   347.19      0.0    146.7      0.9      0.0      0.0    114.5       49    234.2    182.3       96     0.000     0.000     0.000     0.000      107        0       42       25       17        9        5    13.337       69     40.4    5.383   -9.900     1.54    0.000    0.000       26        9     1986  Maize_Short_Soroca_6June_NonOptimum_85_MPI.PRM
   Tot(7)        6        6     1987    211.9    451.8   1159.6   348.98      0.0    206.3      5.6      6.4      0.0    114.2       50    205.0    159.0      100     0.000     0.000     0.000     0.000      107        0       42       25       17        6        0    13.458       73     40.0    5.385   -9.900     1.69    0.000    0.000       26        9     1987  Maize_Short_Soroca_6June_NonOptimum_85_MPI.PRM
   Tot(8)        6        6     1988    248.1    413.1   1202.7   351.45      0.0    238.8      9.3     15.2      0.0    134.4       71    218.9    170.8      100     0.000     0.000     0.000     0.000      107        0       42       25       16        3        0    14.566       75     40.2    5.854   -9.900     1.66    0.000    0.000       26        9     1988  Maize_Short_Soroca_6June_NonOptimum_85_MPI.PRM
   Tot(9)        6        6     1989    414.3    403.4   1141.8   352.89      0.0    339.5     74.8     37.5      0.0    122.6       65    206.5    160.3      100     0.000     0.000     0.000     0.000      107        0       42       25       16        2        0    14.420       75     40.0    5.772   -9.900     1.75    0.000    0.000       26        9     1989  Maize_Short_Soroca_6June_NonOptimum_85_MPI.PRM
  Tot(10)        6        6     1990    176.4    440.5   1094.6   354.16      0.0    167.9      8.5     13.1      0.0    123.5       60    210.7    165.4       98     0.000     0.000     0.000     0.000      107        0       42       25       20       12        2    12.780       71     40.6    5.189   -9.900     1.55    0.000    0.000       26        9     1990  Maize_Short_Soroca_6June_NonOptimum_85_MPI.PRM
  Tot(11)        6        6     1991    371.0    403.5   1213.4   355.48      0.0    322.1     48.9     40.9      0.0    147.2       75    199.8    154.2      100     0.000     0.000     0.000     0.000      107        0       42       25       13        0        0    14.871       76     40.0    5.948   -9.900     1.71    0.000    0.000       26        9     1991  Maize_Short_Soroca_6June_NonOptimum_85_MPI.PRM
  Tot(12)        6        6     1992    153.8    498.8   1261.7   356.27      0.0    153.4      0.4      0.0      0.0    126.9       53    219.7    174.7       85     0.000     0.000     0.000     0.000      107        0       42       25       15       19        8    11.527       59     40.6    4.677   -9.900     1.35    0.000    0.000       26        9     1992  Maize_Short_Soroca_6June_NonOptimum_85_MPI.PRM
  Tot(13)        6        6     1993    276.6    430.4   1056.4   356.95      0.0    234.0     42.6      0.0      0.0    116.0       57    211.2    163.3      100     0.000     0.000     0.000     0.000      107        0       42       25       23        5        0    13.556       74     40.3    5.458   -9.900     1.67    0.000    0.000       26        9     1993  Maize_Short_Soroca_6June_NonOptimum_85_MPI.PRM
  Tot(14)        6        6     1994    213.3    492.9   1309.0   358.63      0.0    170.1     43.2     19.9      0.0     89.2       35    245.3    193.4       95     0.000     0.000     0.000     0.000      107        0       42       25        7       23        3    14.550       65     40.9    5.953   -9.900     1.78    0.000    0.000       26        9     1994  Maize_Short_Soroca_6June_NonOptimum_85_MPI.PRM
  Tot(15)        6        6     1995    377.3    450.2   1246.1   360.62      0.0    331.3     46.0     26.1      0.0    119.3       55    236.5    184.6      100     0.000     0.000     0.000     0.000      107        0       42       25       13        2        0    15.025       75     40.1    6.022   -9.900     1.69    0.000    0.000       26        9     1995  Maize_Short_Soroca_6June_NonOptimum_85_MPI.PRM
  Tot(16)        6        6     1996    392.3    424.9   1100.1   362.37      0.0    340.3     52.0     22.4      0.0    133.1       61    197.5    153.4      100     0.000     0.000     0.000     0.000      107        0       42       25       24        2        0    12.915       75     40.1    5.180   -9.900     1.57    0.000    0.000       26        9     1996  Maize_Short_Soroca_6June_NonOptimum_85_MPI.PRM
  Tot(17)        6        6     1997    318.9    401.6   1109.9   363.47      0.0    300.0     18.9     23.7      0.0    142.6       74    190.5    147.8      100     0.000     0.000     0.000     0.000      107        0       42       25       19        1        0    13.839       75     40.0    5.540   -9.900     1.66    0.000    0.000       26        9     1997  Maize_Short_Soroca_6June_NonOptimum_85_MPI.PRM
  Tot(18)        6        6     1998    287.9    420.7   1171.6   366.50      0.0    270.1     17.8     35.9      0.0    126.6       70    221.8    171.5      100     0.000     0.000     0.000     0.000      107        0       42       25       20        2        0    13.914       75     40.1    5.582   -9.900     1.60    0.000    0.000       26        9     1998  Maize_Short_Soroca_6June_NonOptimum_85_MPI.PRM
  Tot(19)        6        6     1999    165.9    483.7   1378.8   368.14      0.0    165.9      0.0      0.0      0.0    116.2       46    239.8    187.0       99     0.000     0.000     0.000     0.000      107        0       42       25        7       13        1    15.460       72     40.5    6.269   -9.900     1.76    0.000    0.000       26        9     1999  Maize_Short_Soroca_6June_NonOptimum_85_MPI.PRM
  Tot(20)        6        6     2000    297.3    455.6   1161.2   369.41      0.0    282.8     14.5     20.8      0.0    148.9       68    232.4    181.5      100     0.000     0.000     0.000     0.000      107        0       42       25       20        2        0    14.446       75     40.2    5.805   -9.900     1.52    0.000    0.000       26        9     2000  Maize_Short_Soroca_6June_NonOptimum_85_MPI.PRM
  Tot(21)        6        6     2001    265.2    462.1   1291.3   371.07      0.0    251.0     14.2      4.4      0.0    148.7       72    243.1    189.8       95     0.000     0.000     0.000     0.000      107        0       42       25       12        9        3    14.378       69     40.5    5.829   -9.900     1.49    0.000    0.000       26        9     2001  Maize_Short_Soroca_6June_NonOptimum_85_MPI.PRM
  Tot(22)        6        6     2002    389.7    467.2   1321.1   373.16      0.0    352.6     37.1     42.5      0.0    111.1       45    233.9    182.1      100     0.000     0.000     0.000     0.000      107        0       42       25       11        4        0    15.029       72     40.0    6.012   -9.900     1.74    0.000    0.000       26        9     2002  Maize_Short_Soroca_6June_NonOptimum_85_MPI.PRM
  Tot(23)        6        6     2003    334.8    489.0   1220.9   375.80      0.0    285.0     49.8     63.3      0.0    133.7       57    245.9    190.9      100     0.000     0.000     0.000     0.000      107        0       42       25       15        2        0    14.754       74     40.0    5.907   -9.900     1.56    0.000    0.000       26        9     2003  Maize_Short_Soroca_6June_NonOptimum_85_MPI.PRM
  Tot(24)        6        6     2004    263.1    450.3   1178.8   377.49      0.0    242.3     20.8      9.2      0.0     93.0       39    210.9    164.2      100     0.000     0.000     0.000     0.000      107        0       42       25       15        4        0    14.536       73     40.0    5.815   -9.900     1.91    0.000    0.000       26        9     2004  Maize_Short_Soroca_6June_NonOptimum_85_MPI.PRM
  Tot(25)        6        6     2005    181.1    447.2   1239.3   379.80      0.0    175.6      5.5      8.2      0.0    113.8       56    245.0    189.7       99     0.000     0.000     0.000     0.000      107        0       42       25        9        6        1    16.028       73     40.2    6.443   -9.900     1.80    0.000    0.000       26        9     2005  Maize_Short_Soroca_6June_NonOptimum_85_MPI.PRM
  Tot(26)        6        6     2006    220.5    483.0   1237.4   381.90      0.0    215.5      5.0      0.0      0.0    107.4       46    249.8    193.9      100     0.000     0.000     0.000     0.000      107        0       42       25       11        7        0    15.455       73     40.2    6.214   -9.900     1.74    0.000    0.000       26        9     2006  Maize_Short_Soroca_6June_NonOptimum_85_MPI.PRM
  Tot(27)        6        6     2007    185.3    532.1   1314.3   383.77      0.0    181.4      3.9      0.0      0.0    105.3       34    226.3    180.0      100     0.000     0.000     0.000     0.000      107        0       42       25       13       17        0    13.562       68     40.3    5.469   -9.900     1.65    0.000    0.000       26        9     2007  Maize_Short_Soroca_6June_NonOptimum_85_MPI.PRM
  Tot(28)        6        6     2008    400.0    488.6   1252.2   385.59      0.0    330.7     69.3     52.0      0.0    121.0       50    256.1    199.7      100     0.000     0.000     0.000     0.000      107        0       42       25       15        3        0    14.463       74     40.1    5.794   -9.900     1.54    0.000    0.000       26        9     2008  Maize_Short_Soroca_6June_NonOptimum_85_MPI.PRM
  Tot(29)        6        6     2009    155.7    534.4   1353.0   387.37      0.0    154.7      1.0      0.0      0.0    147.7       53    224.3    176.7       86     0.000     0.000     0.000     0.000      107        0       42       25        8       15       15    12.455       56     40.0    4.984   -9.900     1.34    0.000    0.000       26        9     2009  Maize_Short_Soroca_6June_NonOptimum_85_MPI.PRM
  Tot(30)        6        6     2010    312.2    466.6   1338.8   389.85      0.0    287.9     24.3     41.7      0.0    138.3       65    249.8    192.8       99     0.000     0.000     0.000     0.000      107        0       42       25       13        6        1    15.023       74     40.4    6.068   -9.900     1.56    0.000    0.000       26        9     2010  Maize_Short_Soroca_6June_NonOptimum_85_MPI.PRM
  Tot(31)        6        6     2011    175.5    501.1   1309.7   391.63      0.0    172.0      3.5      3.5      0.0    141.3       61    244.8    192.0       89     0.000     0.000     0.000     0.000      107        0       42       25        8        5       12    14.120       62     39.9    5.628   -9.900     1.46    0.000    0.000       26        9     2011  Maize_Short_Soroca_6June_NonOptimum_85_MPI.PRM
  Tot(32)        6        6     2012    107.4    583.0   1401.8   393.82      0.0    105.8      1.6      3.9      0.0    104.2       29    211.3    169.0       87     0.000     0.000     0.000     0.000      107        0       42       25        7       30       13    11.070       50     40.4    4.475   -9.900     1.42    0.000    0.000       26        9     2012  Maize_Short_Soroca_6June_NonOptimum_85_MPI.PRM
  Tot(33)        6        6     2013    249.3    473.0   1269.4   396.48      0.0    231.5     17.8      0.0      0.0    130.3       53    203.7    160.1       91     0.000     0.000     0.000     0.000      107        0       42       25       13       20        4    12.786       63     40.8    5.219   -9.900     1.56    0.000    0.000       26        9     2013  Maize_Short_Soroca_6June_NonOptimum_85_MPI.PRM
  Tot(34)        6        6     2014    237.1    504.5   1302.8   398.55      0.0    217.1     20.0     22.3      0.0    105.9       46    262.6    204.1       95     0.000     0.000     0.000     0.000      107        0       42       25       11        6        5    14.973       69     40.2    6.012   -9.900     1.63    0.000    0.000       26        9     2014  Maize_Short_Soroca_6June_NonOptimum_85_MPI.PRM
  Tot(35)        6        6     2015     75.3    590.7   1405.3   402.00      0.0     75.3      0.0      0.0      0.0     96.2       25    171.2    137.6       80     0.000     0.000     0.000     0.000      102        0       42       25        7       30       17     8.367       37     39.5    3.303   -9.900     1.26    0.000    0.000       26        9     2015  Maize_Short_Soroca_6June_NonOptimum_85_MPI.PRM
  Tot(36)        6        6     2016    196.8    529.3   1373.3   404.00      0.0    193.9      2.9      1.7      0.0    155.3       59    244.0    191.8       89     0.000     0.000     0.000     0.000      107        0       42       25        9       17       12    13.390       61     40.2    5.389   -9.900     1.35    0.000    0.000       26        9     2016  Maize_Short_Soroca_6June_NonOptimum_85_MPI.PRM
  Tot(37)        6        6     2017    229.7    532.7   1347.1   407.00      0.0    222.5      7.2      1.9      0.0    147.9       56    239.4    187.2       88     0.000     0.000     0.000     0.000      107        0       42       25        8       13        9    13.453       60     40.2    5.410   -9.900     1.40    0.000    0.000       26        9     2017  Maize_Short_Soroca_6June_NonOptimum_85_MPI.PRM
  Tot(38)        6        6     2018    252.3    476.6   1408.2   410.00      0.0    239.0     13.3     15.2      0.0    141.3       69    276.6    214.7       98     0.000     0.000     0.000     0.000      107        0       42       25        7        1        2    16.813       73     40.0    6.732   -9.900     1.61    0.000    0.000       26        9     2018  Maize_Short_Soroca_6June_NonOptimum_85_MPI.PRM
  Tot(39)        6        6     2019    166.3    540.1   1376.3   413.00      0.0    163.1      3.2      4.4      0.0    138.9       51    217.0    169.8       81     0.000     0.000     0.000     0.000      107        0       42       25        9       13       17    12.046       55     39.7    4.788   -9.900     1.35    0.000    0.000       26        9     2019  Maize_Short_Soroca_6June_NonOptimum_85_MPI.PRM
  Tot(40)        6        6     2020    157.2    449.5   1048.0   416.00      0.0    155.8      1.4      0.0      0.0    105.8       49    208.8    162.4      100     0.000     0.000     0.000     0.000      107        0       42       25       24        6        0    13.438       74     40.1    5.394   -9.900     1.71    0.000    0.000       26        9     2020  Maize_Short_Soroca_6June_NonOptimum_85_MPI.PRM
  Tot(41)        6        6     2021    240.8    421.9   1079.6   419.00      0.0    226.2     14.6     18.1      0.0    120.7       67    229.1    177.3      100     0.000     0.000     0.000     0.000      107        0       42       25       20        2        0    15.387       75     40.1    6.169   -9.900     1.76    0.000    0.000       26        9     2021  Maize_Short_Soroca_6June_NonOptimum_85_MPI.PRM
  Tot(42)        6        6     2022    294.6    404.5   1016.7   422.00      0.0    256.3     38.3     57.8      0.0    138.5       81    201.4    157.0      100     0.000     0.000     0.000     0.000      107        0       42       25       25        3        0    13.783       76     40.2    5.535   -9.900     1.63    0.000    0.000       26        9     2022  Maize_Short_Soroca_6June_NonOptimum_85_MPI.PRM
  Tot(43)        6        6     2023    278.4    413.8   1083.2   425.00      0.0    260.2     18.2     37.1      0.0    101.2       46    175.2    136.8      100     0.000     0.000     0.000     0.000      107        0       42       25       20        2        0    13.648       74     40.0    5.459   -9.900     1.97    0.000    0.000       26        9     2023  Maize_Short_Soroca_6June_NonOptimum_85_MPI.PRM
  Tot(44)        6        6     2024    211.9    413.3    976.0   428.00      0.0    201.5     10.4      0.0      0.0    103.5       47    168.5    131.9      100     0.000     0.000     0.000     0.000      107        0       42       25       28       12        0    12.140       73     40.4    4.910   -9.900     1.81    0.000    0.000       26        9     2024  Maize_Short_Soroca_6June_NonOptimum_85_MPI.PRM
  Tot(45)        6        6     2025    197.2    436.2   1039.9   431.00      0.0    181.5     15.7      0.2      0.0    100.4       43    185.9    146.4      100     0.000     0.000     0.000     0.000      107        0       42       25       26       13        0    12.099       71     40.5    4.900   -9.900     1.71    0.000    0.000       26        9     2025  Maize_Short_Soroca_6June_NonOptimum_85_MPI.PRM
  Tot(46)        6        6     2026    255.6    438.1   1229.4   435.00      0.0    245.9      9.7      0.0      0.0    116.4       47    189.1    147.1      100     0.000     0.000     0.000     0.000      107        0       42       25       15        4        0    14.948       73     40.1    5.989   -9.900     1.96    0.000    0.000       26        9     2026  Maize_Short_Soroca_6June_NonOptimum_85_MPI.PRM
  Tot(47)        6        6     2027    286.0    419.7   1103.5   438.00      0.0    267.3     18.7      0.0      0.0    106.3       48    179.1    139.7      100     0.000     0.000     0.000     0.000      107        0       42       25       19        3        0    14.292       74     40.0    5.718   -9.900     2.00    0.000    0.000       26        9     2027  Maize_Short_Soroca_6June_NonOptimum_85_MPI.PRM
  Tot(48)        6        6     2028    319.3    417.5   1061.6   442.00      0.0    308.2     11.1     13.9      0.0    130.5       69    217.9    169.0      100     0.000     0.000     0.000     0.000      107        0       42       25       18        2        0    15.309       75     40.1    6.137   -9.900     1.76    0.000    0.000       26        9     2028  Maize_Short_Soroca_6June_NonOptimum_85_MPI.PRM
  Tot(49)        6        6     2029    332.8    402.4   1169.9   445.00      0.0    252.7     80.1     86.4      0.0    134.9       75    210.9    162.6      100     0.000     0.000     0.000     0.000      107        0       42       25       12        1        0    15.835       75     40.0    6.342   -9.900     1.83    0.000    0.000       26        9     2029  Maize_Short_Soroca_6June_NonOptimum_85_MPI.PRM
  Tot(50)        6        6     2030    164.8    416.3    927.5   449.00      0.0    161.1      3.7      0.0      0.0     99.4       50    180.8    140.9      100     0.000     0.000     0.000     0.000      107        0       42       25       28        4        0    13.008       74     40.1    5.219   -9.900     1.86    0.000    0.000       26        9     2030  Maize_Short_Soroca_6June_NonOptimum_85_MPI.PRM
  Tot(51)        6        6     2031    342.1    393.3    967.5   452.00      0.0    298.0     44.1     74.7      0.0    122.9       73    181.5    141.3      100     0.000     0.000     0.000     0.000      107        0       42       25       30        0        0    12.356       76     40.0    4.945   -9.900     1.62    0.000    0.000       26        9     2031  Maize_Short_Soroca_6June_NonOptimum_85_MPI.PRM
  Tot(52)        6        6     2032    186.4    481.1   1193.4   456.00      0.0    180.2      6.2      0.0      0.0     84.0       35    237.0    183.9      100     0.000     0.000     0.000     0.000      107        0       42       25       13        7        0    15.645       72     40.2    6.284   -9.900     1.96    0.000    0.000       26        9     2032  Maize_Short_Soroca_6June_NonOptimum_85_MPI.PRM
  Tot(53)        6        6     2033    329.4    459.5   1085.5   460.00      0.0    282.8     46.6     47.8      0.0    129.2       57    209.6    162.4      100     0.000     0.000     0.000     0.000      107        0       42       25       20        5        0    13.913       75     40.2    5.592   -9.900     1.65    0.000    0.000       26        9     2033  Maize_Short_Soroca_6June_NonOptimum_85_MPI.PRM
  Tot(54)        6        6     2034    248.3    503.1   1315.2   464.00      0.0    236.1     12.2      0.0      0.0    101.2       38    236.7    185.1      100     0.000     0.000     0.000     0.000      107        0       42       25       10        5        0    15.796       72     40.1    6.328   -9.900     1.87    0.000    0.000       26        9     2034  Maize_Short_Soroca_6June_NonOptimum_85_MPI.PRM
  Tot(55)        6        6     2035    141.8    483.7   1100.5   468.00      0.0    141.6      0.2      0.0      0.0    115.4       44    192.8    152.0       99     0.000     0.000     0.000     0.000      107        0       42       25       22       12        0    12.664       71     40.5    5.124   -9.900     1.66    0.000    0.000       26        9     2035  Maize_Short_Soroca_6June_NonOptimum_85_MPI.PRM
  Tot(56)        6        6     2036    115.3    545.9   1313.1   472.00      0.0    115.2      0.1      0.0      0.0    101.8       38    225.8    177.3       83     0.000     0.000     0.000     0.000      107        0       42       25       11       16       13    12.621       56     40.2    5.070   -9.900     1.55    0.000    0.000       26        9     2036  Maize_Short_Soroca_6June_NonOptimum_85_MPI.PRM
  Tot(57)        6        6     2037    205.9    436.0   1133.0   476.00      0.0    194.3     11.6      8.9      0.0    122.6       66    219.5    170.3       97     0.000     0.000     0.000     0.000      107        0       42       25       16        5        2    15.046       73     40.3    6.057   -9.900     1.77    0.000    0.000       26        9     2037  Maize_Short_Soroca_6June_NonOptimum_85_MPI.PRM
  Tot(58)        6        6     2038    130.9    481.2   1055.8   481.00      0.0    128.1      2.8      3.9      0.0     92.6       40    210.6    165.4       96     0.000     0.000     0.000     0.000      107        0       42       25       23       12        4    12.879       68     40.3    5.194   -9.900     1.71    0.000    0.000       26        9     2038  Maize_Short_Soroca_6June_NonOptimum_85_MPI.PRM
  Tot(59)        6        6     2039    227.0    456.5   1219.4   485.00      0.0    213.4     13.6     17.3      0.0    114.8       55    239.5    184.4       98     0.000     0.000     0.000     0.000      107        0       42       25       10        4        1    16.222       73     40.1    6.509   -9.900     1.84    0.000    0.000       26        9     2039  Maize_Short_Soroca_6June_NonOptimum_85_MPI.PRM
  Tot(60)        6        6     2040    213.1    413.9   1086.2   489.00      0.0    194.8     18.3     18.9      0.0    130.8       75    217.4    169.2      100     0.000     0.000     0.000     0.000      107        0       42       25       18        1        0    15.591       75     40.1    6.248   -9.900     1.79    0.000    0.000       26        9     2040  Maize_Short_Soroca_6June_NonOptimum_85_MPI.PRM
  Tot(61)        6        6     2041    235.4    465.3   1058.6   494.00      0.0    212.5     22.9      0.0      0.0    103.7       45    209.4    163.4      100     0.000     0.000     0.000     0.000      107        0       42       25       20        5        0    14.420       73     40.2    5.801   -9.900     1.85    0.000    0.000       26        9     2041  Maize_Short_Soroca_6June_NonOptimum_85_MPI.PRM
  Tot(62)        6        6     2042    253.5    443.3   1120.4   499.00      0.0    243.3     10.2      3.9      0.0    107.8       50    215.8    167.4      100     0.000     0.000     0.000     0.000      107        0       42       25       15        2        0    15.600       74     40.0    6.241   -9.900     1.93    0.000    0.000       26        9     2042  Maize_Short_Soroca_6June_NonOptimum_85_MPI.PRM
  Tot(63)        6        6     2043    185.5    476.4   1306.9   504.00      0.0    179.1      6.4      6.5      0.0    122.6       54    223.7    175.5       90     0.000     0.000     0.000     0.000      107        0       42       25        8       13        8    14.633       63     40.3    5.899   -9.900     1.70    0.000    0.000       26        9     2043  Maize_Short_Soroca_6June_NonOptimum_85_MPI.PRM
  Tot(64)        6        6     2044    183.1    487.5   1215.5   508.00      0.0    175.9      7.2      0.0      0.0    107.3       46    237.8    185.1      100     0.000     0.000     0.000     0.000      107        0       42       25       14        5        0    15.444       73     40.0    6.181   -9.900     1.79    0.000    0.000       26        9     2044  Maize_Short_Soroca_6June_NonOptimum_85_MPI.PRM
  Tot(65)        6        6     2045    154.6    469.0   1254.1   513.00      0.0    154.3      0.3      0.0      0.0     97.2       39    218.8    170.7      100     0.000     0.000     0.000     0.000      107        0       42       25       11        9        0    15.851       72     40.1    6.361   -9.900     2.01    0.000    0.000       26        9     2045  Maize_Short_Soroca_6June_NonOptimum_85_MPI.PRM
  Tot(66)        6        6     2046    285.3    437.2   1273.4   519.00      0.0    274.6     10.7     18.2      0.0    126.3       70    251.7    193.8      100     0.000     0.000     0.000     0.000      107        0       42       25        7        5        0    17.698       75     40.2    7.118   -9.900     1.88    0.000    0.000       26        9     2046  Maize_Short_Soroca_6June_NonOptimum_85_MPI.PRM
  Tot(67)        6        6     2047    209.3    423.4   1147.1   524.00      0.0    202.2      7.1     11.0      0.0    113.5       50    181.0    142.3      100     0.000     0.000     0.000     0.000      107        0       42       25       14        3        0    15.222       74     40.0    6.092   -9.900     2.07    0.000    0.000       26        9     2047  Maize_Short_Soroca_6June_NonOptimum_85_MPI.PRM
  Tot(68)        6        6     2048    140.3    521.6   1248.6   529.00      0.0    135.3      5.0      0.0      0.0     94.6       36    243.3    192.1       95     0.000     0.000     0.000     0.000      107        0       42       25       12       14        6    14.866       66     39.9    5.936   -9.900     1.76    0.000    0.000       26        9     2048  Maize_Short_Soroca_6June_NonOptimum_85_MPI.PRM
  Tot(69)        6        6     2049    134.4    470.4   1228.6   535.00      0.0    134.2      0.2      0.2      0.0    102.9       53    243.9    189.1       92     0.000     0.000     0.000     0.000      107        0       42       25       13        6        7    15.531       67     40.2    6.241   -9.900     1.80    0.000    0.000       26        9     2049  Maize_Short_Soroca_6June_NonOptimum_85_MPI.PRM
  Tot(70)        6        6     2050    264.0    413.0   1159.6   541.00      0.0    253.9     10.1      0.0      0.0     92.5       47    205.3    158.8      100     0.000     0.000     0.000     0.000      107        0       42       25       13        1        0    16.359       75     40.0    6.544   -9.900     2.20    0.000    0.000       26        9     2050  Maize_Short_Soroca_6June_NonOptimum_85_MPI.PRM
  Tot(71)        6        6     2051    218.5    462.2   1182.5   546.00      0.0    202.3     16.2     10.7      0.0    105.9       50    239.4    187.3       99     0.000     0.000     0.000     0.000      107        0       42       25       12       14        0    16.092       72     40.8    6.568   -9.900     1.90    0.000    0.000       26        9     2051  Maize_Short_Soroca_6June_NonOptimum_85_MPI.PRM
  Tot(72)        6        6     2052    318.6    405.0   1055.5   552.00      0.0    288.3     30.3      0.0      0.0    121.2       67    203.3    158.4      100     0.000     0.000     0.000     0.000      107        0       42       25       20        6        0    15.129       75     40.2    6.083   -9.900     1.87    0.000    0.000       26        9     2052  Maize_Short_Soroca_6June_NonOptimum_85_MPI.PRM
  Tot(73)        6        6     2053    216.4    492.9   1213.3   558.00      0.0    197.9     18.5     22.0      0.0     98.8       38    220.9    172.3      100     0.000     0.000     0.000     0.000      107        0       42       25       14       13        0    14.962       71     40.4    6.051   -9.900     1.89    0.000    0.000       26        9     2053  Maize_Short_Soroca_6June_NonOptimum_85_MPI.PRM
  Tot(74)        6        6     2054    115.3    552.5   1415.3   564.00      0.0    114.5      0.8      0.0      0.0    101.6       35    221.5    174.3       87     0.000     0.000     0.000     0.000      107        0       42       25        5       16       10    13.764       57     40.4    5.554   -9.900     1.72    0.000    0.000       26        9     2054  Maize_Short_Soroca_6June_NonOptimum_85_MPI.PRM
  Tot(75)        6        6     2055    246.9    467.9   1220.8   571.00      0.0    234.9     12.0      0.8      0.0    102.9       50    245.9    191.4      100     0.000     0.000     0.000     0.000      107        0       42       25       12        6        0    16.718       74     40.2    6.721   -9.900     1.93    0.000    0.000       26        9     2055  Maize_Short_Soroca_6June_NonOptimum_85_MPI.PRM
  Tot(76)        6        6     2056     94.1    523.1   1268.3   577.00      0.0     94.1      0.0      0.0      0.0     93.1       33    206.8    162.1       89     0.000     0.000     0.000     0.000      107        0       42       25       10       17        8    13.555       60     40.6    5.504   -9.900     1.84    0.000    0.000       26        9     2056  Maize_Short_Soroca_6June_NonOptimum_85_MPI.PRM
  Tot(77)        6        6     2057    176.7    523.3   1235.1   583.00      0.0    160.0     16.7      0.3      0.0     91.4       36    238.8    187.8       93     0.000     0.000     0.000     0.000      107        0       42       25       12       17        3    14.625       66     40.6    5.941   -9.900     1.80    0.000    0.000       26        9     2057  Maize_Short_Soroca_6June_NonOptimum_85_MPI.PRM
  Tot(78)        6        6     2058    281.0    416.4   1177.9   590.00      0.0    251.9     29.1     16.0      0.0    111.1       58    207.6    161.7      100     0.000     0.000     0.000     0.000      107        0       42       25       12        3        0    16.486       75     40.0    6.602   -9.900     2.07    0.000    0.000       26        9     2058  Maize_Short_Soroca_6June_NonOptimum_85_MPI.PRM
  Tot(79)        6        6     2059    129.6    544.3   1370.3   597.00      0.0    124.6      5.0      7.7      0.0    116.1       45    218.1    171.6       82     0.000     0.000     0.000     0.000      106        0       42       25        7       10       18    12.255       52     39.7    4.863   -9.900     1.46    0.000    0.000       26        9     2059  Maize_Short_Soroca_6June_NonOptimum_85_MPI.PRM
  Tot(80)        6        6     2060     82.1    537.5   1244.0   604.00      0.0     81.6      0.5      0.0      0.0     89.7       32    207.6    163.7       85     0.000     0.000     0.000     0.000      107        0       42       25        9       15       14    12.800       55     39.9    5.103   -9.900     1.72    0.000    0.000       26        9     2060  Maize_Short_Soroca_6June_NonOptimum_85_MPI.PRM
  Tot(81)        6        6     2061    170.2    412.9   1019.0   611.00      0.0    168.7      1.5      0.0      0.0    100.0       54    196.7    153.2      100     0.000     0.000     0.000     0.000      107        0       42       25       26        5        0    13.902       75     40.2    5.585   -9.900     1.88    0.000    0.000       26        9     2061  Maize_Short_Soroca_6June_NonOptimum_85_MPI.PRM
  Tot(82)        6        6     2062    235.6    455.5   1251.3   618.00      0.0    218.5     17.1     10.3      0.0    123.4       53    212.6    165.9       97     0.000     0.000     0.000     0.000      107        0       42       25        9       12        2    15.864       70     40.5    6.431   -9.900     1.91    0.000    0.000       26        9     2062  Maize_Short_Soroca_6June_NonOptimum_85_MPI.PRM
  Tot(83)        6        6     2063    161.3    485.8   1238.9   625.00      0.0    158.6      2.7      0.0      0.0     96.8       40    224.5    174.2      100     0.000     0.000     0.000     0.000      107        0       42       25       12        7        0    15.753       73     40.3    6.347   -9.900     1.98    0.000    0.000       26        9     2063  Maize_Short_Soroca_6June_NonOptimum_85_MPI.PRM
  Tot(84)        6        6     2064    179.7    446.8   1359.7   632.00      0.0    164.3     15.4     29.4      0.0    101.6       50    232.0    180.3       97     0.000     0.000     0.000     0.000      107        0       42       25        4        7        3    17.263       71     40.2    6.933   -9.900     2.08    0.000    0.000       26        9     2064  Maize_Short_Soroca_6June_NonOptimum_85_MPI.PRM
  Tot(85)        6        6     2065    139.7    474.9   1186.8   639.00      0.0    139.0      0.7      0.0      0.0    113.4       51    211.5    165.7       94     0.000     0.000     0.000     0.000      107        0       42       25       15       10        5    14.116       67     40.4    5.697   -9.900     1.75    0.000    0.000       26        9     2065  Maize_Short_Soroca_6June_NonOptimum_85_MPI.PRM
  Tot(86)        6        6     2066    253.9    576.8   1399.1   647.00      0.0    226.4     27.5      1.1      0.0    129.0       43    243.6    190.9       91     0.000     0.000     0.000     0.000      107        0       42       25        7       24        4    14.438       63     40.9    5.898   -9.900     1.58    0.000    0.000       26        9     2066  Maize_Short_Soroca_6June_NonOptimum_85_MPI.PRM
  Tot(87)        6        6     2067    236.5    442.0   1194.2   654.00      0.0    229.4      7.1      5.8      0.0    106.9       54    228.5    176.9      100     0.000     0.000     0.000     0.000      107        0       42       25       12        4        0    16.965       74     40.1    6.809   -9.900     2.03    0.000    0.000       26        9     2067  Maize_Short_Soroca_6June_NonOptimum_85_MPI.PRM
  Tot(88)        6        6     2068    171.1    488.4   1232.6   662.00      0.0    170.8      0.3      0.0      0.0     99.2       40    221.2    173.4      100     0.000     0.000     0.000     0.000      107        0       42       25       11       14        0    15.368       70     40.6    6.238   -9.900     1.95    0.000    0.000       26        9     2068  Maize_Short_Soroca_6June_NonOptimum_85_MPI.PRM
  Tot(89)        6        6     2069    275.5    452.7   1281.7   669.00      0.0    233.7     41.8     38.6      0.0    110.1       45    190.6    149.5      100     0.000     0.000     0.000     0.000      107        0       42       25        9        4        0    16.227       74     40.0    6.499   -9.900     2.16    0.000    0.000       26        9     2069  Maize_Short_Soroca_6June_NonOptimum_85_MPI.PRM
  Tot(90)        6        6     2070    129.4    496.4   1389.3   677.00      0.0    128.7      0.7      0.1      0.0    101.1       45    233.4    181.3       89     0.000     0.000     0.000     0.000      107        0       42       25        5       10        9    15.201       61     40.1    6.094   -9.900     1.82    0.000    0.000       26        9     2070  Maize_Short_Soroca_6June_NonOptimum_85_MPI.PRM
  Tot(91)        6        6     2071    116.5    529.5   1398.2   685.00      0.0    108.6      7.9     25.8      0.0     79.2       34    221.0    175.3       81     0.000     0.000     0.000     0.000      107        0       42       25        6       11       16    13.206       54     39.6    5.224   -9.900     1.74    0.000    0.000       26        9     2071  Maize_Short_Soroca_6June_NonOptimum_85_MPI.PRM
  Tot(92)        6        6     2072    110.1    584.1   1392.1   693.00      0.0    109.9      0.2      0.0      0.0     89.8       26    212.5    168.9       89     0.000     0.000     0.000     0.000      107        0       42       25        7       27        6    12.889       56     40.7    5.246   -9.900     1.74    0.000    0.000       26        9     2072  Maize_Short_Soroca_6June_NonOptimum_85_MPI.PRM
  Tot(93)        6        6     2073    183.7    408.0   1220.7   701.00      0.0    176.2      7.5      1.3      0.0     97.2       51    208.1    161.4      100     0.000     0.000     0.000     0.000      107        0       42       25        8        2        0    17.808       75     40.0    7.130   -9.900     2.34    0.000    0.000       26        9     2073  Maize_Short_Soroca_6June_NonOptimum_85_MPI.PRM
  Tot(94)        6        6     2074    208.0    407.0   1171.4   709.00      0.0    202.3      5.7     12.4      0.0    114.4       61    195.1    151.2      100     0.000     0.000     0.000     0.000      107        0       42       25       13        1        0    16.127       75     40.0    6.457   -9.900     2.09    0.000    0.000       26        9     2074  Maize_Short_Soroca_6June_NonOptimum_85_MPI.PRM
  Tot(95)        6        6     2075    116.9    506.9   1391.7   717.00      0.0    114.0      2.9      4.6      0.0    111.9       45    207.5    165.3       84     0.000     0.000     0.000     0.000      107        0       42       25        5       23       13    13.308       55     40.5    5.396   -9.900     1.69    0.000    0.000       26        9     2075  Maize_Short_Soroca_6June_NonOptimum_85_MPI.PRM
  Tot(96)        6        6     2076    121.8    547.9   1536.9   725.00      0.0    121.5      0.3      0.0      0.0     95.5       33    231.6    181.3       91     0.000     0.000     0.000     0.000      107        0       42       25        2       16        6    15.102       62     40.3    6.093   -9.900     1.86    0.000    0.000       26        9     2076  Maize_Short_Soroca_6June_NonOptimum_85_MPI.PRM
  Tot(97)        6        6     2077    259.9    473.5   1433.5   733.00      0.0    232.4     27.5      0.0      0.0     96.3       41    231.0    179.7      100     0.000     0.000     0.000     0.000      107        0       42       25        5        8        0    17.111       73     40.3    6.898   -9.900     2.11    0.000    0.000       26        9     2077  Maize_Short_Soroca_6June_NonOptimum_85_MPI.PRM
  Tot(98)        6        6     2078    225.8    468.2   1315.9   742.00      0.0    210.6     15.2     20.9      0.0    139.9       64    220.5    172.1      100     0.000     0.000     0.000     0.000      107        0       42       25       12        4        0    15.782       74     40.2    6.337   -9.900     1.76    0.000    0.000       26        9     2078  Maize_Short_Soroca_6June_NonOptimum_85_MPI.PRM
  Tot(99)        6        6     2079    139.7    497.1   1250.5   750.00      0.0    126.0     13.7      0.0      0.0     83.6       36    232.5    179.9       97     0.000     0.000     0.000     0.000      107        0       42       25       11        5        3    15.359       70     40.0    6.147   -9.900     1.94    0.000    0.000       26        9     2079  Maize_Short_Soroca_6June_NonOptimum_85_MPI.PRM
 Tot(100)        6        6     2080     96.0    502.7   1315.6   758.00      0.0     95.7      0.3      0.0      0.0     73.5       32    228.9    177.6       93     0.000     0.000     0.000     0.000      107        0       42       25        9        8        7    15.140       67     40.2    6.093   -9.900     2.01    0.000    0.000       26        9     2080  Maize_Short_Soroca_6June_NonOptimum_85_MPI.PRM
 Tot(101)        6        6     2081    154.6    480.1   1328.0   767.00      0.0    149.2      5.4      6.9      0.0     94.3       41    228.9    178.6       99     0.000     0.000     0.000     0.000      107        0       42       25        8       10        1    16.141       72     40.4    6.519   -9.900     2.02    0.000    0.000       26        9     2081  Maize_Short_Soroca_6June_NonOptimum_85_MPI.PRM
 Tot(102)        6        6     2082    100.8    661.1   1603.3   775.00      0.0     95.5      5.3      4.1      0.0    110.6       29    185.6    148.6       77     0.000     0.000     0.000     0.000       97        0       42       25        1       26       19     9.557       40     33.9    3.241   -9.900     1.11    0.000    0.000       26        9     2082  Maize_Short_Soroca_6June_NonOptimum_85_MPI.PRM
 Tot(103)        6        6     2083    118.0    524.7   1465.3   784.00      0.0    115.9      2.1      0.0      0.0    100.4       38    200.0    157.0       83     0.000     0.000     0.000     0.000      107        0       42       25        5       21       10    12.395       53     40.6    5.035   -9.900     1.68    0.000    0.000       26        9     2083  Maize_Short_Soroca_6June_NonOptimum_85_MPI.PRM
 Tot(104)        6        6     2084    310.6    424.8   1325.8   792.00      0.0    293.6     17.0     35.9      0.0    128.0       67    208.9    162.5      100     0.000     0.000     0.000     0.000      107        0       42       25        9        1        0    16.612       75     40.0    6.645   -9.900     1.97    0.000    0.000       26        9     2084  Maize_Short_Soroca_6June_NonOptimum_85_MPI.PRM
 Tot(105)        6        6     2085    134.4    581.4   1447.7   801.00      0.0    133.5      0.9      0.0      0.0    127.0       41    199.6    157.6       81     0.000     0.000     0.000     0.000      107        0       42       25        3       23       13    11.439       47     40.5    4.636   -9.900     1.42    0.000    0.000       26        9     2085  Maize_Short_Soroca_6June_NonOptimum_85_MPI.PRM
 Tot(106)        6        6     2086    205.4    528.7   1410.6   810.00      0.0    193.5     11.9      0.0      0.0     98.9       37    245.4    191.8      100     0.000     0.000     0.000     0.000      107        0       42       25        4        8        0    16.919       72     40.0    6.774   -9.900     1.97    0.000    0.000       26        9     2086  Maize_Short_Soroca_6June_NonOptimum_85_MPI.PRM
 Tot(107)        6        6     2087    136.2    471.8   1285.4   818.00      0.0    133.8      2.4      4.0      0.0     88.2       36    207.9    163.1      100     0.000     0.000     0.000     0.000      107        0       42       25        9       11        0    15.658       72     40.3    6.307   -9.900     2.13    0.000    0.000       26        9     2087  Maize_Short_Soroca_6June_NonOptimum_85_MPI.PRM
 Tot(108)        6        6     2088    156.9    507.4   1351.2   827.00      0.0    132.4     24.5     40.0      0.0     93.6       34    202.8    159.8       94     0.000     0.000     0.000     0.000      107        0       42       25        6       19        5    14.711       65     40.6    5.977   -9.900     2.02    0.000    0.000       26        9     2088  Maize_Short_Soroca_6June_NonOptimum_85_MPI.PRM
 Tot(109)        6        6     2089    230.2    432.2   1231.8   836.00      0.0    221.2      9.0      4.5      0.0    103.8       54    211.0    165.0      100     0.000     0.000     0.000     0.000      107        0       42       25       14        6        0    15.559       74     40.2    6.260   -9.900     1.99    0.000    0.000       26        9     2089  Maize_Short_Soroca_6June_NonOptimum_85_MPI.PRM
 Tot(110)        6        6     2090     88.9    579.9   1407.7   845.00      0.0     88.9      0.0      0.0      0.0     88.3       27    199.2    158.0       86     0.000     0.000     0.000     0.000      107        0       42       25        8       26       10    12.202       55     40.6    4.958   -9.900     1.72    0.000    0.000       26        9     2090  Maize_Short_Soroca_6June_NonOptimum_85_MPI.PRM
 Tot(111)        6        6     2091    201.2    492.8   1362.6   854.00      0.0    193.1      8.1      0.0      0.0    123.5       54    240.2    187.2      100     0.000     0.000     0.000     0.000      107        0       42       25        6       12        0    16.579       72     40.7    6.742   -9.900     1.85    0.000    0.000       26        9     2091  Maize_Short_Soroca_6June_NonOptimum_85_MPI.PRM
 Tot(112)        6        6     2092    127.0    639.5   1540.7   863.00      0.0    126.5      0.5      0.0      0.0    134.2       39    197.3    157.8       78     0.000     0.000     0.000     0.000       97        0       42       25        5       25       19     9.265       40     34.1    3.155   -9.900     0.96    0.000    0.000       26        9     2092  Maize_Short_Soroca_6June_NonOptimum_85_MPI.PRM
 Tot(113)        6        6     2093    169.9    518.4   1406.6   872.00      0.0    166.3      3.6      0.0      0.0    114.5       49    249.4    192.6       97     0.000     0.000     0.000     0.000      107        0       42       25        4        5        3    16.508       71     40.1    6.614   -9.900     1.82    0.000    0.000       26        9     2093  Maize_Short_Soroca_6June_NonOptimum_85_MPI.PRM
 Tot(114)        6        6     2094    183.1    436.4   1327.4   881.00      0.0    174.6      8.5      0.0      0.0     90.8       40    193.9    150.8      100     0.000     0.000     0.000     0.000      107        0       42       25        6       10        0    16.677       72     40.1    6.687   -9.900     2.35    0.000    0.000       26        9     2094  Maize_Short_Soroca_6June_NonOptimum_85_MPI.PRM
 Tot(115)        6        6     2095    191.0    539.0   1408.7   890.00      0.0    187.7      3.3      0.0      0.0     77.8       25    209.9    166.0      100     0.000     0.000     0.000     0.000      107        0       42       25       10       11        0    14.825       69     40.2    5.959   -9.900     2.07    0.000    0.000       26        9     2095  Maize_Short_Soroca_6June_NonOptimum_85_MPI.PRM
 Tot(116)        6        6     2096    166.4    648.9   1665.5   899.00      0.0    147.0     19.4     25.8      0.0    113.2       33    212.2    167.4       78     0.000     0.000     0.000     0.000      107        0       42       25        1       18       17    10.902       45     40.1    4.377   -9.900     1.35    0.000    0.000       26        9     2096  Maize_Short_Soroca_6June_NonOptimum_85_MPI.PRM
 Tot(117)        6        6     2097    317.0    431.0   1328.3   908.00      0.0    287.2     29.8     16.7      0.0    103.4       44    173.2    134.9      100     0.000     0.000     0.000     0.000      107        0       42       25        9        4        0    15.772       73     40.0    6.309   -9.900     2.28    0.000    0.000       26        9     2097  Maize_Short_Soroca_6June_NonOptimum_85_MPI.PRM
 Tot(118)        6        6     2098    185.9    463.1   1328.5   917.00      0.0    167.5     18.4     20.2      0.0     96.8       47    228.8    176.5       99     0.000     0.000     0.000     0.000      107        0       42       25        4        6        1    17.081       73     40.2    6.861   -9.900     2.11    0.000    0.000       26        9     2098  Maize_Short_Soroca_6June_NonOptimum_85_MPI.PRM
 Tot(119)        6        6     2099    252.7    523.9   1400.4   927.00      0.0    231.3     21.4      1.5      0.0    117.6       40    205.2    164.3       98     0.000     0.000     0.000     0.000      107        0       42       25        8       20        1    14.412       67     40.5    5.836   -9.900     1.81    0.000    0.000       26        9     2099  Maize_Short_Soroca_6June_NonOptimum_85_MPI.PRM
