AquaCrop 6.0 (March 2017) - Output created on (date) : 07/06/2021   at (time) : 19:37:07

    RunNr     Day1   Month1    Year1     Rain      ETo       GD     CO2      Irri   Infilt   Runoff    Drain   Upflow        E     E/Ex       Tr      TrW   Tr/Trx    SaltIn   SaltOut    SaltUp  SaltProf     Cycle   SaltStr  FertStr  WeedStr  TempStr   ExpStr   StoStr  BioMass  Brelative   HI     Yield     WPet     DayN   MonthN    YearN
                                           mm       mm    °C.day    ppm        mm       mm       mm       mm       mm       mm        %       mm       mm        %    ton/ha    ton/ha    ton/ha    ton/ha      days       %        %        %        %        %        %    ton/ha        %       %    ton/ha    kg/m3
   Tot(1)       15        4     2017   1203.2    445.7   1566.3   404.00      0.0   1203.2      0.0    911.2      0.0    151.0       50    137.2    137.2      100     0.000     0.000     0.000     0.000      123        0        0        0       10       11        0    16.336       91     30.0    4.901     1.71       23        8     2017  1206_RCP45_rainfed_15April_sandyloam.PRM
   Tot(2)       15        4     2018   1641.6    431.2   1564.5   407.00      0.0   1641.6      0.0   1354.7      0.0    159.5       55    127.7    127.7      100     0.000     0.000     0.000     0.000      136        0        0        0       18        4       -0    17.296       95     30.0    5.189     1.82        6        9     2018  1206_RCP45_rainfed_15April_sandyloam.PRM
   Tot(3)       15        4     2019    944.1    469.5   1562.1   409.00      0.0    944.1      0.0    658.1      0.0    143.9       43    122.0    122.0       90     0.000     0.000     0.000     0.000      121        0        0        0       11       31        4    12.142       70     30.0    3.645     1.37       22        8     2019  1206_RCP45_rainfed_15April_sandyloam.PRM
   Tot(4)       15        4     2020   1246.7    433.2   1564.5   411.00      0.0   1246.7      0.0    975.4      0.0    144.3       48    125.2    125.2      100     0.000     0.000     0.000     0.000      129        0        0        0       15        7        0    16.555       91     30.0    4.966     1.86       31        8     2020  1206_RCP45_rainfed_15April_sandyloam.PRM
   Tot(5)       15        4     2021   2148.2    343.9   1563.4   413.00      0.0   2148.2      0.0   1865.0      0.0    182.2       81     90.5     90.5      100     0.000     0.000     0.000     0.000      141        0        0        0       20        0        0    18.474       99     30.0    5.542     2.04       13        9     2021  1206_RCP45_rainfed_15April_sandyloam.PRM
   Tot(6)       15        4     2022   1677.0    386.5   1561.9   416.00      0.0   1677.0      0.0   1389.6      0.0    169.1       67    112.7    112.7      100     0.000     0.000     0.000     0.000      138        0        0        0       19        1        0    18.204       98     30.0    5.461     1.94        7        9     2022  1206_RCP45_rainfed_15April_sandyloam.PRM
   Tot(7)       15        4     2023   1564.7    381.2   1564.8   418.00      0.0   1564.7      0.0   1290.4      0.0    163.3       65    104.7    104.7      100     0.000     0.000     0.000     0.000      136        0        0        0       17        3       -0    17.675       95     30.0    5.303     1.98        6        9     2023  1206_RCP45_rainfed_15April_sandyloam.PRM
   Tot(8)       15        4     2024   1003.7    446.0   1561.2   420.00      0.0   1003.7      0.0    697.3      0.0    166.0       57    131.8    131.8      100     0.000     0.000     0.000     0.000      130        0        0        0       14        6       -0    17.298       94     30.0    5.189     1.75       31        8     2024  1206_RCP45_rainfed_15April_sandyloam.PRM
   Tot(9)       15        4     2025   1387.6    474.2   1558.5   423.00      0.0   1387.6      0.0   1173.8      0.0    105.0       28    103.3    103.3      100     0.000     0.000     0.000     0.000      124        0        0        0       12       18        0    14.182       78     30.0    4.254     2.05       23        8     2025  1206_RCP45_rainfed_15April_sandyloam.PRM
  Tot(10)       15        4     2026   1732.4    420.1   1559.4   425.00      0.0   1732.4      0.0   1432.1      0.0    160.7       59    129.3    129.3      100     0.000     0.000     0.000     0.000      129        0        0        0       15        2        0    17.810       97     30.0    5.343     1.85       29        8     2026  1206_RCP45_rainfed_15April_sandyloam.PRM
  Tot(11)       15        4     2027   1387.0    435.3   1567.1   428.00      0.0   1387.0      0.0   1116.4      0.0    118.1       41    137.1    137.1       92     0.000     0.000     0.000     0.000      118        0        0        0        9       20        2    14.785       84     30.0    4.435     1.74       17        8     2027  1206_RCP45_rainfed_15April_sandyloam.PRM
  Tot(12)       15        4     2028   1448.2    411.4   1557.9   430.00      0.0   1448.2      0.0   1140.3      0.0    179.1       69    124.0    124.0      100     0.000     0.000     0.000     0.000      132        0        0        0       15        2        0    17.979       97     30.0    5.394     1.79        3        9     2028  1206_RCP45_rainfed_15April_sandyloam.PRM
  Tot(13)       15        4     2029   1450.9    459.0   1557.2   433.00      0.0   1450.9      0.0   1155.1      0.0    146.0       49    155.4    155.4      100     0.000     0.000     0.000     0.000      124        0        0        0       12        9        0    16.363       93     30.1    4.927     1.63       23        8     2029  1206_RCP45_rainfed_15April_sandyloam.PRM
  Tot(14)       15        4     2030   1566.2    399.1   1566.5   435.00      0.0   1566.2      0.0   1271.5      0.0    184.6       70    114.5    114.5      100     0.000     0.000     0.000     0.000      135        0        0        0       17        1        0    18.273       98     30.0    5.482     1.85        4        9     2030  1206_RCP45_rainfed_15April_sandyloam.PRM
  Tot(15)       15        4     2031   1318.1    490.5   1558.3   438.00      0.0   1318.1      0.0    999.1      0.0    182.3       54    131.6    131.6       89     0.000     0.000     0.000     0.000      126        0        0        0       15       23        3    13.915       79     30.0    4.174     1.33       26        8     2031  1206_RCP45_rainfed_15April_sandyloam.PRM
  Tot(16)       15        4     2032   1541.8    423.0   1562.3   440.00      0.0   1541.8      0.0   1247.9      0.0    173.5       63    128.4    128.4      100     0.000     0.000     0.000     0.000      127        0        0        0       13        5        0    17.419       96     30.0    5.226     1.75       28        8     2032  1206_RCP45_rainfed_15April_sandyloam.PRM
  Tot(17)       15        4     2033   1274.5    417.9   1563.4   443.00      0.0   1274.5      0.0    995.7      0.0    159.1       57    122.6    122.6      100     0.000     0.000     0.000     0.000      126        0        0        0       12        4        0    17.429       95     30.0    5.229     1.87       25        8     2033  1206_RCP45_rainfed_15April_sandyloam.PRM
  Tot(18)       15        4     2034   1186.7    393.9   1565.2   445.00      0.0   1186.7      0.0    867.4      0.0    206.4       83    112.0    112.0      100     0.000     0.000     0.000     0.000      138        0        0        0       18        0        0    18.591       99     30.0    5.577     1.76        9        9     2034  1206_RCP45_rainfed_15April_sandyloam.PRM
  Tot(19)       15        4     2035   1361.0    415.6   1558.3   448.00      0.0   1361.0      0.0   1034.7      0.0    172.9       68    150.3    150.3      100     0.000     0.000     0.000     0.000      122        0        0        0       11        4        0    17.406       97     30.0    5.222     1.62       23        8     2035  1206_RCP45_rainfed_15April_sandyloam.PRM
  Tot(20)       15        4     2036   1809.9    364.3   1557.9   450.00      0.0   1809.9      0.0   1532.0      0.0    177.7       77    106.7    106.7      100     0.000     0.000     0.000     0.000      132        0        0        0       15        1        0    18.462       99     30.0    5.539     1.96        1        9     2036  1206_RCP45_rainfed_15April_sandyloam.PRM
  Tot(21)       15        4     2037   1164.3    431.7   1557.5   453.00      0.0   1164.3      0.0    905.5      0.0    156.2       51    107.5    107.5      100     0.000     0.000     0.000     0.000      129        0        0        0       14        7        0    16.997       91     30.0    5.099     1.95       30        8     2037  1206_RCP45_rainfed_15April_sandyloam.PRM
  Tot(22)       15        4     2038   1881.7    398.7   1565.8   456.00      0.0   1881.7      0.0   1601.1      0.0    160.1       60    117.7    117.7      100     0.000     0.000     0.000     0.000      134        0        0        0       16        4        0    17.558       94     30.0    5.267     1.90        3        9     2038  1206_RCP45_rainfed_15April_sandyloam.PRM
  Tot(23)       15        4     2039   1697.9    333.5   1558.7   458.00      0.0   1697.9      0.0   1452.1      0.0    151.8       68     93.0     93.0      100     0.000     0.000     0.000     0.000      131        0        0        0       15        2       -0    18.320       97     30.0    5.496     2.26        1        9     2039  1206_RCP45_rainfed_15April_sandyloam.PRM
  Tot(24)       15        4     2040   1499.7    388.2   1559.8   461.00      0.0   1499.7      0.0   1195.6      0.0    164.7       65    120.8    120.8      100     0.000     0.000     0.000     0.000      124        0        0        0       12        6        0    17.429       95     30.0    5.229     1.84       25        8     2040  1206_RCP45_rainfed_15April_sandyloam.PRM
  Tot(25)       15        4     2041   1187.2    469.6   1560.9   463.00      0.0   1187.2      0.0    937.5      0.0    132.1       39    116.9    116.9       88     0.000     0.000     0.000     0.000      116        0        0        0        9       29        4    12.406       71     30.0    3.722     1.51       16        8     2041  1206_RCP45_rainfed_15April_sandyloam.PRM
  Tot(26)       15        4     2042    906.2    463.3   1562.5   466.00      0.0    906.2      0.0    618.3      0.0    181.6       50     96.6     96.6       92     0.000     0.000     0.000     0.000      120        0        0        0       10       38        4     9.899       56     30.0    2.970     1.07       21        8     2042  1206_RCP45_rainfed_15April_sandyloam.PRM
  Tot(27)       15        4     2043   1524.1    410.7   1561.5   469.00      0.0   1524.1      0.0   1264.2      0.0    135.6       46    111.6    111.6      100     0.000     0.000     0.000     0.000      123        0        0        0       11        7        0    16.747       90     30.0    5.024     2.04       23        8     2043  1206_RCP45_rainfed_15April_sandyloam.PRM
  Tot(28)       15        4     2044   1943.8    365.2   1558.1   471.00      0.0   1943.8      0.0   1686.8      0.0    158.9       63     99.2     99.2      100     0.000     0.000     0.000     0.000      124        0        0        0       11        4       -0    17.651       94     30.0    5.295     2.07       24        8     2044  1206_RCP45_rainfed_15April_sandyloam.PRM
  Tot(29)       15        4     2045   1571.0    380.6   1557.1   474.00      0.0   1571.0      0.0   1269.2      0.0    189.4       76    108.3    108.3      100     0.000     0.000     0.000     0.000      137        0        0        0       17        1       -0    18.727       99     30.0    5.618     1.89        6        9     2045  1206_RCP45_rainfed_15April_sandyloam.PRM
  Tot(30)       15        4     2046   2008.4    377.7   1563.9   476.00      0.0   2008.4      0.0   1757.1      0.0    159.3       61     93.9     93.9      100     0.000     0.000     0.000     0.000      134        0        0        0       17        1        0    18.488       98     30.0    5.547     2.21        4        9     2046  1206_RCP45_rainfed_15April_sandyloam.PRM
  Tot(31)       15        4     2047   1138.4    362.2   1559.5   479.00      0.0   1138.4      0.0    858.0      0.0    171.6       74    108.5    108.5      100     0.000     0.000     0.000     0.000      128        0        0        0       13        1        0    18.500       98     30.0    5.550     1.99       29        8     2047  1206_RCP45_rainfed_15April_sandyloam.PRM
  Tot(32)       15        4     2048   1123.3    413.2   1560.7   481.00      0.0   1123.3      0.0    867.3      0.0    140.5       50    113.2    113.2      100     0.000     0.000     0.000     0.000      126        0        0        0       13        6        0    17.103       91     30.0    5.131     2.03       26        8     2048  1206_RCP45_rainfed_15April_sandyloam.PRM
  Tot(33)       15        4     2049   1436.4    437.1   1566.4   484.00      0.0   1436.4      0.0   1172.1      0.0    163.7       51    104.5    104.5       90     0.000     0.000     0.000     0.000      120        0        0        0       10       37        4    11.698       65     30.1    3.519     1.32       19        8     2049  1206_RCP45_rainfed_15April_sandyloam.PRM
  Tot(34)       15        4     2050   1673.7    332.2   1562.6   487.00      0.0   1673.7      0.0   1364.5      0.0    185.4       88     98.2     98.2      100     0.000     0.000     0.000     0.000      130        0        0        0       14        1        0    18.673       99     30.0    5.602     1.98       31        8     2050  1206_RCP45_rainfed_15April_sandyloam.PRM
  Tot(35)       15        4     2051   1578.8    418.7   1561.8   489.00      0.0   1578.8      0.0   1351.4      0.0    132.0       43    104.0    104.0      100     0.000     0.000     0.000     0.000      120        0        0        0       10        7        0    16.552       90     30.0    4.966     2.12       19        8     2051  1206_RCP45_rainfed_15April_sandyloam.PRM
  Tot(36)       15        4     2052   1818.8    424.7   1564.5   492.00      0.0   1818.8      0.0   1545.4      0.0    153.7       53    122.2    122.2       99     0.000     0.000     0.000     0.000      121        0        0        0       11       12        0    16.567       91     30.0    4.970     1.82       21        8     2052  1206_RCP45_rainfed_15April_sandyloam.PRM
  Tot(37)       15        4     2053   1619.5    395.8   1559.7   494.00      0.0   1619.5      0.0   1374.2      0.0    145.4       52    105.5    105.5      100     0.000     0.000     0.000     0.000      127        0        0        0       13        5        0    17.414       93     30.0    5.224     2.10       27        8     2053  1206_RCP45_rainfed_15April_sandyloam.PRM
  Tot(38)       15        4     2054   1979.1    384.1   1557.9   496.00      0.0   1979.1      0.0   1720.8      0.0    147.2       55    107.5    107.5      100     0.000     0.000     0.000     0.000      124        0        0        0       12        7        0    17.344       94     30.0    5.203     2.06       24        8     2054  1206_RCP45_rainfed_15April_sandyloam.PRM
  Tot(39)       15        4     2055   1263.2    414.0   1559.1   498.00      0.0   1263.2      0.0    967.5      0.0    157.9       59    134.5    134.5      100     0.000     0.000     0.000     0.000      121        0        0        0       10        4        0    17.262       94     30.0    5.179     1.78       21        8     2055  1206_RCP45_rainfed_15April_sandyloam.PRM
  Tot(40)       15        4     2056   1231.1    409.0   1558.7   501.00      0.0   1231.1      0.0    936.1      0.0    170.1       65    125.0    125.0      100     0.000     0.000     0.000     0.000      129        0        0        0       14        2       -0    18.404       98     30.0    5.521     1.88       28        8     2056  1206_RCP45_rainfed_15April_sandyloam.PRM
  Tot(41)       15        4     2057   1422.0    416.6   1561.2   503.00      0.0   1422.0      0.0   1213.0      0.0    110.6       37    100.0    100.0      100     0.000     0.000     0.000     0.000      124        0        0        0       13        6        0    17.028       92     30.0    5.108     2.44       23        8     2057  1206_RCP45_rainfed_15April_sandyloam.PRM
  Tot(42)       15        4     2058   1526.8    356.9   1563.6   505.00      0.0   1526.8      0.0   1260.0      0.0    169.8       70     93.5     93.5      100     0.000     0.000     0.000     0.000      130        0        0        0       13        1        0    18.675       99     30.0    5.602     2.14        1        9     2058  1206_RCP45_rainfed_15April_sandyloam.PRM
  Tot(43)       15        4     2059   1763.6    382.0   1564.5   507.00      0.0   1763.6      0.0   1475.7      0.0    190.4       74    102.1    102.1      100     0.000     0.000     0.000     0.000      134        0        0        0       17        1        0    18.578       98     30.0    5.573     1.91        3        9     2059  1206_RCP45_rainfed_15April_sandyloam.PRM
  Tot(44)       15        4     2060   2042.7    341.2   1563.5   509.00      0.0   2042.7      0.0   1806.6      0.0    136.4       59     96.8     96.8      100     0.000     0.000     0.000     0.000      124        0        0        0       11        3       -0    17.730       95     30.0    5.319     2.29       24        8     2060  1206_RCP45_rainfed_15April_sandyloam.PRM
  Tot(45)       15        4     2061   1346.8    410.9   1558.5   511.00      0.0   1346.8      0.0   1071.9      0.0    149.3       52    115.7    115.7      100     0.000     0.000     0.000     0.000      124        0        0        0       12       12        0    16.652       91     30.0    4.995     1.90       24        8     2061  1206_RCP45_rainfed_15April_sandyloam.PRM
  Tot(46)       15        4     2062   1573.7    376.9   1566.8   513.00      0.0   1573.7      0.0   1355.1      0.0    132.0       48     90.1     90.1      100     0.000     0.000     0.000     0.000      125        0        0        0       12        5        0    17.367       93     30.0    5.210     2.38       25        8     2062  1206_RCP45_rainfed_15April_sandyloam.PRM
  Tot(47)       15        4     2063   1644.9    401.0   1563.7   514.00      0.0   1644.9      0.0   1404.5      0.0    121.2       42     99.9     99.9      100     0.000     0.000     0.000     0.000      120        0        0        0        9        8       -0    16.640       90     30.0    4.992     2.26       19        8     2063  1206_RCP45_rainfed_15April_sandyloam.PRM
  Tot(48)       15        4     2064   1770.6    390.0   1567.6   516.00      0.0   1770.6      0.0   1498.2      0.0    172.6       65    101.9    101.9      100     0.000     0.000     0.000     0.000      127        0        0        0       12        2        0    18.377       97     30.0    5.513     2.03       29        8     2064  1206_RCP45_rainfed_15April_sandyloam.PRM
  Tot(49)       15        4     2065   1606.3    433.4   1558.7   518.00      0.0   1606.3      0.0   1331.9      0.0    131.7       47    135.8    135.8       90     0.000     0.000     0.000     0.000      115        0        0        0        8       19        3    14.988       85     30.0    4.496     1.69       14        8     2065  1206_RCP45_rainfed_15April_sandyloam.PRM
  Tot(50)       15        4     2066   1678.4    348.8   1568.4   519.00      0.0   1678.4      0.0   1422.2      0.0    166.6       72     94.5     94.5      100     0.000     0.000     0.000     0.000      128        0        0        0       13        2       -0    18.212       97     30.0    5.464     2.11       27        8     2066  1206_RCP45_rainfed_15April_sandyloam.PRM
  Tot(51)       15        4     2067   2048.5    367.1   1566.1   520.00      0.0   2048.5      0.0   1801.6      0.0    131.5       55    115.1    115.1      100     0.000     0.000     0.000     0.000      126        0        0        0       12        4        0    17.737       95     30.0    5.321     2.18       26        8     2067  1206_RCP45_rainfed_15April_sandyloam.PRM
  Tot(52)       15        4     2068   1129.4    429.8   1557.7   522.00      0.0   1129.4      0.0    906.7      0.0    126.8       42    102.3    102.3      100     0.000     0.000     0.000     0.000      122        0        0        0       11        8        0    16.565       89     30.0    4.969     2.20       21        8     2068  1206_RCP45_rainfed_15April_sandyloam.PRM
  Tot(53)       15        4     2069   1543.3    370.0   1559.7   523.00      0.0   1543.3      0.0   1277.6      0.0    150.8       60     97.7     97.7      100     0.000     0.000     0.000     0.000      127        0        0        0       13        4        0    17.876       95     30.0    5.363     2.16       29        8     2069  1206_RCP45_rainfed_15April_sandyloam.PRM
  Tot(54)       15        4     2070   1952.2    375.2   1567.2   524.00      0.0   1952.2      0.0   1651.3      0.0    198.6       81    102.6    102.6      100     0.000     0.000     0.000     0.000      127        0        0        0       13        1        0    18.576       99     30.0    5.573     1.86       27        8     2070  1206_RCP45_rainfed_15April_sandyloam.PRM
  Tot(55)       15        4     2071   1201.5    384.2   1565.5   525.00      0.0   1201.5      0.0    947.7      0.0    143.2       55    109.0    109.0      100     0.000     0.000     0.000     0.000      123        0        0        0       10        2        0    18.022       97     30.0    5.406     2.16       21        8     2071  1206_RCP45_rainfed_15April_sandyloam.PRM
  Tot(56)       15        4     2072   1513.4    364.1   1563.2   527.00      0.0   1513.4      0.0   1219.1      0.0    169.9       71    112.5    112.5      100     0.000     0.000     0.000     0.000      122        0        0        0       10        1       -0    18.119       98     30.0    5.436     1.93       20        8     2072  1206_RCP45_rainfed_15April_sandyloam.PRM
  Tot(57)       15        4     2073   1396.4    394.0   1567.6   527.00      0.0   1396.4      0.0   1159.3      0.0    127.5       46    107.0    107.0      100     0.000     0.000     0.000     0.000      117        0        0        0        8        5        0    17.009       93     30.0    5.103     2.20       18        8     2073  1206_RCP45_rainfed_15April_sandyloam.PRM
  Tot(58)       15        4     2074   1740.9    316.1   1568.3   528.00      0.0   1740.9      0.0   1480.1      0.0    177.7       89     85.3     85.3      100     0.000     0.000     0.000     0.000      133        0        0        0       15        0        0    18.995       99     30.0    5.698     2.18        2        9     2074  1206_RCP45_rainfed_15April_sandyloam.PRM
  Tot(59)       15        4     2075   1560.1    356.3   1564.6   529.00      0.0   1560.1      0.0   1286.0      0.0    161.8       74    113.7    113.7      100     0.000     0.000     0.000     0.000      122        0        0        0       10        1        0    18.336       99     30.0    5.501     2.01       21        8     2075  1206_RCP45_rainfed_15April_sandyloam.PRM
  Tot(60)       15        4     2076   1317.8    363.3   1563.4   530.00      0.0   1317.8      0.0   1101.1      0.0    130.8       49     83.5     83.5      100     0.000     0.000     0.000     0.000      125        0        0        0       11        6       -0    17.318       92     30.0    5.195     2.43       24        8     2076  1206_RCP45_rainfed_15April_sandyloam.PRM
  Tot(61)       15        4     2077   1992.7    323.0   1564.3   530.00      0.0   1992.7      0.0   1720.4      0.0    170.9       85     93.9     93.9      100     0.000     0.000     0.000     0.000      126        0        0        0       12        0        0    18.794       99     30.0    5.638     2.15       25        8     2077  1206_RCP45_rainfed_15April_sandyloam.PRM
  Tot(62)       15        4     2078   1793.2    366.2   1566.8   531.00      0.0   1793.2      0.0   1535.8      0.0    147.6       60    104.9    104.9      100     0.000     0.000     0.000     0.000      120        0        0        0        9        2        0    18.171       98     30.0    5.451     2.17       19        8     2078  1206_RCP45_rainfed_15April_sandyloam.PRM
  Tot(63)       15        4     2079   1503.6    384.6   1564.8   531.00      0.0   1503.6      0.0   1232.6      0.0    164.1       61    108.1    108.1      100     0.000     0.000     0.000     0.000      119        0        0        0        9        8        0    17.009       93     30.0    5.103     1.89       19        8     2079  1206_RCP45_rainfed_15April_sandyloam.PRM
  Tot(64)       15        4     2080   1758.6    387.2   1560.6   531.00      0.0   1758.6      0.0   1486.0      0.0    160.4       63    117.0    117.0      100     0.000     0.000     0.000     0.000      118        0        0        0        9        7        0    17.338       96     30.0    5.201     1.90       18        8     2080  1206_RCP45_rainfed_15April_sandyloam.PRM
  Tot(65)       15        4     2081   1574.4    377.0   1565.2   531.00      0.0   1574.4      0.0   1307.8      0.0    132.3       50     94.7     94.7      100     0.000     0.000     0.000     0.000      121        0        0        0       10        4        0    17.733       94     30.0    5.320     2.35       20        8     2081  1206_RCP45_rainfed_15April_sandyloam.PRM
  Tot(66)       15        4     2082   1772.3    381.1   1564.6   531.00      0.0   1772.3      0.0   1521.3      0.0    146.3       60    106.8    106.8      100     0.000     0.000     0.000     0.000      126        0        0        0       12        6        0    17.758       95     30.0    5.327     2.12       26        8     2082  1206_RCP45_rainfed_15April_sandyloam.PRM
  Tot(67)       15        4     2083   1011.8    445.3   1558.4   532.00      0.0   1011.8      0.0    771.8      0.0    124.5       39    114.8    114.8       98     0.000     0.000     0.000     0.000      113        0        0        0        7       20        0    14.638       83     30.0    4.391     1.85       11        8     2083  1206_RCP45_rainfed_15April_sandyloam.PRM
  Tot(68)       15        4     2084   1565.3    382.6   1558.3   532.00      0.0   1565.3      0.0   1299.7      0.0    131.9       51    109.6    109.6      100     0.000     0.000     0.000     0.000      118        0        0        0        9        5        0    17.397       93     30.0    5.219     2.17       18        8     2084  1206_RCP45_rainfed_15April_sandyloam.PRM
  Tot(69)       15        4     2085   1753.2    347.3   1565.8   532.00      0.0   1753.2      0.0   1468.3      0.0    160.8       75    119.0    119.0      100     0.000     0.000     0.000     0.000      117        0        0        0        8        1       -0    18.110       99     30.0    5.433     1.95       15        8     2085  1206_RCP45_rainfed_15April_sandyloam.PRM
  Tot(70)       15        4     2086   1384.3    364.5   1564.8   532.00      0.0   1384.3      0.0   1136.3      0.0    137.5       56    104.1    104.1      100     0.000     0.000     0.000     0.000      119        0        0        0        9        7        0    17.377       94     30.0    5.213     2.17       17        8     2086  1206_RCP45_rainfed_15April_sandyloam.PRM
  Tot(71)       15        4     2087   1628.9    358.0   1564.1   533.00      0.0   1628.9      0.0   1349.7      0.0    162.7       70    110.8    110.8      100     0.000     0.000     0.000     0.000      120        0        0        0        9        2        0    18.047       98     30.0    5.414     1.99       19        8     2087  1206_RCP45_rainfed_15April_sandyloam.PRM
  Tot(72)       15        4     2088   1252.0    377.3   1564.5   533.00      0.0   1252.0      0.0   1075.6      0.0     99.1       35     81.4     81.4      100     0.000     0.000     0.000     0.000      120        0        0        0       11       10        0    16.327       88     30.0    4.898     2.75       18        8     2088  1206_RCP45_rainfed_15April_sandyloam.PRM
  Tot(73)       15        4     2089   1472.4    378.9   1562.7   533.00      0.0   1472.4      0.0   1148.0      0.0    153.0       65    123.5    123.5      100     0.000     0.000     0.000     0.000      115        0        0        0        8        6        0    17.332       96     30.0    5.200     1.89       15        8     2089  1206_RCP45_rainfed_15April_sandyloam.PRM
  Tot(74)       15        4     2090   1836.6    310.5   1560.3   534.00      0.0   1836.6      0.0   1594.2      0.0    154.4       77     86.7     86.7      100     0.000     0.000     0.000     0.000      126        0        0        0       13        1        0    18.614       98     30.0    5.584     2.33       25        8     2090  1206_RCP45_rainfed_15April_sandyloam.PRM
  Tot(75)       15        4     2091   1688.1    390.3   1561.8   534.00      0.0   1688.1      0.0   1473.1      0.0    111.6       41    102.6    102.6      100     0.000     0.000     0.000     0.000      114        0        0        0        7        8        0    16.371       90     30.0    4.911     2.32       13        8     2091  1206_RCP45_rainfed_15April_sandyloam.PRM
  Tot(76)       15        4     2092   1857.2    304.8   1565.1   535.00      0.0   1857.2      0.0   1619.7      0.0    164.1       86     79.5     79.5      100     0.000     0.000     0.000     0.000      130        0        0        0       13        0        0    19.094       99     30.0    5.728     2.37       29        8     2092  1206_RCP45_rainfed_15April_sandyloam.PRM
  Tot(77)       15        4     2093   1220.6    373.5   1565.9   535.00      0.0   1220.6      0.0    965.2      0.0    129.6       53    115.7    115.7      100     0.000     0.000     0.000     0.000      117        0        0        0        8        4        0    17.390       94     30.0    5.217     2.13       17        8     2093  1206_RCP45_rainfed_15April_sandyloam.PRM
  Tot(78)       15        4     2094   1430.3    343.4   1561.0   535.00      0.0   1430.3      0.0   1168.9      0.0    158.0       69     99.5     99.5      100     0.000     0.000     0.000     0.000      122        0        0        0       10        2        0    18.308       98     30.0    5.492     2.14       21        8     2094  1206_RCP45_rainfed_15April_sandyloam.PRM
  Tot(79)       15        4     2095   1343.0    388.3   1565.9   536.00      0.0   1343.0      0.0   1084.7      0.0    155.0       59    111.2    111.2      100     0.000     0.000     0.000     0.000      118        0        0        0        9        6        0    17.035       93     30.0    5.110     1.94       18        8     2095  1206_RCP45_rainfed_15April_sandyloam.PRM
  Tot(80)       15        4     2096   1217.0    375.4   1567.4   536.00      0.0   1217.0      0.0    967.9      0.0    130.4       51    112.6    112.6      100     0.000     0.000     0.000     0.000      115        0        0        0        8        4        0    17.369       95     30.0    5.211     2.15       13        8     2096  1206_RCP45_rainfed_15April_sandyloam.PRM
  Tot(81)       15        4     2097   1280.5    372.9   1563.1   537.00      0.0   1280.5      0.0   1011.5      0.0    153.3       62    110.8    110.8      100     0.000     0.000     0.000     0.000      116        0        0        0        8        4        0    17.468       95     30.0    5.240     2.00       16        8     2097  1206_RCP45_rainfed_15April_sandyloam.PRM
  Tot(82)       15        4     2098   1814.1    383.2   1560.6   537.00      0.0   1814.1      0.0   1566.6      0.0    133.3       51    110.8    110.8      100     0.000     0.000     0.000     0.000      117        0        0        0        9        5        0    17.030       94     30.0    5.109     2.10       16        8     2098  1206_RCP45_rainfed_15April_sandyloam.PRM
  Tot(83)       15        4     2099   1136.0    352.7   1568.8   538.00      0.0   1136.0      0.0    853.7      0.0    185.9       86    105.2    105.2      100     0.000     0.000     0.000     0.000      124        0        0        0       11        1        0    18.441       99     30.0    5.532     1.92       23        8     2099  1206_RCP45_rainfed_15April_sandyloam.PRM
