AquaCrop 6.0 (March 2017) - Output created on (date) : 07/06/2021   at (time) : 19:51:41

    RunNr     Day1   Month1    Year1     Rain      ETo       GD     CO2      Irri   Infilt   Runoff    Drain   Upflow        E     E/Ex       Tr      TrW   Tr/Trx    SaltIn   SaltOut    SaltUp  SaltProf     Cycle   SaltStr  FertStr  WeedStr  TempStr   ExpStr   StoStr  BioMass  Brelative   HI     Yield     WPet     DayN   MonthN    YearN
                                           mm       mm    °C.day    ppm        mm       mm       mm       mm       mm       mm        %       mm       mm        %    ton/ha    ton/ha    ton/ha    ton/ha      days       %        %        %        %        %        %    ton/ha        %       %    ton/ha    kg/m3
   Tot(1)       15        4     2017   1869.6    386.9   1563.6   407.00      0.0   1869.6      0.0   1584.2      0.0    180.1       72    106.3    106.3      100     0.000     0.000     0.000     0.000      140        0        0        0       19        0       -0    18.432       99     30.0    5.530     1.94        8        9     2017  1206_RCP85_rainfed_15April_sandyloam.PRM
   Tot(2)       15        4     2018   1498.0    416.5   1564.9   410.00      0.0   1498.0      0.0   1291.5      0.0    111.8       37     94.4     94.4      100     0.000     0.000     0.000     0.000      133        0        0        0       17        7        0    16.486       90     30.0    4.946     2.43        4        9     2018  1206_RCP85_rainfed_15April_sandyloam.PRM
   Tot(3)       15        4     2019   1563.0    463.4   1563.2   413.00      0.0   1563.0      0.0   1260.8      0.0    149.7       48    149.3    149.3      100     0.000     0.000     0.000     0.000      123        0        0        0       11       10        0    16.197       90     30.0    4.859     1.63       24        8     2019  1206_RCP85_rainfed_15April_sandyloam.PRM
   Tot(4)       15        4     2020   1492.8    388.8   1558.2   416.00      0.0   1492.8      0.0   1239.2      0.0    157.1       58    100.7    100.7      100     0.000     0.000     0.000     0.000      134        0        0        0       17        5        0    17.317       94     30.0    5.195     2.04        3        9     2020  1206_RCP85_rainfed_15April_sandyloam.PRM
   Tot(5)       15        4     2021   1673.0    415.2   1564.3   419.00      0.0   1673.0      0.0   1425.2      0.0    154.5       52     98.6     98.6      100     0.000     0.000     0.000     0.000      137        0        0        0       18        5        0    17.263       93     30.0    5.179     2.06        7        9     2021  1206_RCP85_rainfed_15April_sandyloam.PRM
   Tot(6)       15        4     2022    935.0    505.5   1562.6   422.00      0.0    935.0      0.0    646.6      0.0    163.4       39     92.6     92.6       90     0.000     0.000     0.000     0.000      120        0        0        0       11       45        3     8.049       47     30.6    2.460     0.96       20        8     2022  1206_RCP85_rainfed_15April_sandyloam.PRM
   Tot(7)       15        4     2023   1433.3    419.0   1558.7   425.00      0.0   1433.3      0.0   1190.1      0.0    135.3       45     92.1     92.1      100     0.000     0.000     0.000     0.000      135        0        0        0       17        6        0    16.971       91     30.0    5.091     2.24        6        9     2023  1206_RCP85_rainfed_15April_sandyloam.PRM
   Tot(8)       15        4     2024   1812.9    396.5   1557.1   428.00      0.0   1812.9      0.0   1564.3      0.0    123.9       45    105.6    105.6      100     0.000     0.000     0.000     0.000      130        0        0        0       14        4        0    17.653       94     30.0    5.296     2.31       29        8     2024  1206_RCP85_rainfed_15April_sandyloam.PRM
   Tot(9)       15        4     2025   1138.5    420.6   1565.3   431.00      0.0   1138.5      0.0    853.8      0.0    163.1       60    122.1    122.1      100     0.000     0.000     0.000     0.000      130        0        0        0       14        3        0    17.738       96     30.0    5.321     1.88       31        8     2025  1206_RCP85_rainfed_15April_sandyloam.PRM
  Tot(10)       15        4     2026   1445.8    479.1   1557.7   435.00      0.0   1445.8      0.0   1133.2      0.0    199.2       56    105.0    105.0       84     0.000     0.000     0.000     0.000      120        0        0        0       12       38        6     9.711       57     30.4    2.954     0.97       23        8     2026  1206_RCP85_rainfed_15April_sandyloam.PRM
  Tot(11)       15        4     2027   1305.4    457.0   1560.2   438.00      0.0   1305.4      0.0   1050.9      0.0    130.4       41    123.1    123.1      100     0.000     0.000     0.000     0.000      128        0        0        0       14        6       -0    17.176       93     30.0    5.153     2.05       28        8     2027  1206_RCP85_rainfed_15April_sandyloam.PRM
  Tot(12)       15        4     2028   1752.2    399.7   1562.3   442.00      0.0   1752.2      0.0   1475.1      0.0    150.8       56    123.8    123.8      100     0.000     0.000     0.000     0.000      130        0        0        0       15        4        0    17.623       96     30.0    5.287     1.93       30        8     2028  1206_RCP85_rainfed_15April_sandyloam.PRM
  Tot(13)       15        4     2029   1326.9    397.9   1558.3   445.00      0.0   1326.9      0.0   1026.0      0.0    169.3       66    125.8    125.8      100     0.000     0.000     0.000     0.000      126        0        0        0       13        2        0    18.028       97     30.0    5.408     1.85       27        8     2029  1206_RCP85_rainfed_15April_sandyloam.PRM
  Tot(14)       15        4     2030   1672.3    416.8   1560.9   449.00      0.0   1672.3      0.0   1355.0      0.0    148.8       53    128.1    128.1      100     0.000     0.000     0.000     0.000      127        0        0        0       13        3        0    17.560       95     30.0    5.268     1.91       27        8     2030  1206_RCP85_rainfed_15April_sandyloam.PRM
  Tot(15)       15        4     2031   1953.6    443.7   1560.2   452.00      0.0   1953.6      0.0   1695.1      0.0    151.3       49    114.1    114.1      100     0.000     0.000     0.000     0.000      131        0        0        0       15        5        0    17.186       93     30.0    5.156     1.96        1        9     2031  1206_RCP85_rainfed_15April_sandyloam.PRM
  Tot(16)       15        4     2032   1441.6    427.0   1558.3   456.00      0.0   1441.6      0.0   1204.0      0.0    126.3       41    110.8    110.8      100     0.000     0.000     0.000     0.000      124        0        0        0       13       11        0    15.989       87     30.0    4.797     2.05       24        8     2032  1206_RCP85_rainfed_15April_sandyloam.PRM
  Tot(17)       15        4     2033   1313.0    433.9   1558.2   460.00      0.0   1313.0      0.0   1049.5      0.0    138.1       45    114.0    114.0      100     0.000     0.000     0.000     0.000      126        0        0        0       13        8        0    16.715       91     30.0    5.015     1.99       26        8     2033  1206_RCP85_rainfed_15April_sandyloam.PRM
  Tot(18)       15        4     2034   2100.6    415.0   1567.1   464.00      0.0   2100.6      0.0   1782.2      0.0    150.8       53    112.7    112.7      100     0.000     0.000     0.000     0.000      127        0        0        0       13        6        0    16.976       92     30.0    5.093     1.94       28        8     2034  1206_RCP85_rainfed_15April_sandyloam.PRM
  Tot(19)       15        4     2035   1413.0    410.5   1558.3   468.00      0.0   1413.0      0.0   1131.7      0.0    173.3       64    114.3    114.3      100     0.000     0.000     0.000     0.000      134        0        0        0       16        2        0    18.143       97     30.0    5.443     1.90        4        9     2035  1206_RCP85_rainfed_15April_sandyloam.PRM
  Tot(20)       15        4     2036   1574.1    357.3   1567.9   472.00      0.0   1574.1      0.0   1298.8      0.0    160.7       70    111.7    111.7      100     0.000     0.000     0.000     0.000      130        0        0        0       14        2        0    18.126       98     30.0    5.438     2.01       30        8     2036  1206_RCP85_rainfed_15April_sandyloam.PRM
  Tot(21)       15        4     2037   2054.0    397.4   1564.1   476.00      0.0   2054.0      0.0   1799.1      0.0    134.5       48     88.2     88.2      100     0.000     0.000     0.000     0.000      133        0        0        0       16        6       -0    17.187       90     30.0    5.156     2.33        3        9     2037  1206_RCP85_rainfed_15April_sandyloam.PRM
  Tot(22)       15        4     2038   1701.7    386.1   1561.7   481.00      0.0   1701.7      0.0   1452.4      0.0    148.4       56    103.1    103.1      100     0.000     0.000     0.000     0.000      133        0        0        0       16        3       -0    17.850       95     30.0    5.355     2.15        2        9     2038  1206_RCP85_rainfed_15April_sandyloam.PRM
  Tot(23)       15        4     2039   1231.2    421.6   1566.3   485.00      0.0   1231.2      0.0    918.6      0.0    158.6       62    153.6    153.6      100     0.000     0.000     0.000     0.000      121        0        0        0       11        3        0    17.443       97     30.0    5.236     1.68       21        8     2039  1206_RCP85_rainfed_15April_sandyloam.PRM
  Tot(24)       15        4     2040   1496.8    406.4   1560.6   489.00      0.0   1496.8      0.0   1267.0      0.0    113.8       37     92.9     92.9      100     0.000     0.000     0.000     0.000      127        0        0        0       14       10        0    16.084       86     30.0    4.825     2.34       27        8     2040  1206_RCP85_rainfed_15April_sandyloam.PRM
  Tot(25)       15        4     2041   1417.9    393.3   1566.0   494.00      0.0   1417.9      0.0   1135.8      0.0    150.0       60    129.8    129.8      100     0.000     0.000     0.000     0.000      124        0        0        0       11        3        0    17.778       96     30.0    5.334     1.92       23        8     2041  1206_RCP85_rainfed_15April_sandyloam.PRM
  Tot(26)       15        4     2042    989.8    423.1   1560.6   499.00      0.0    989.8      0.0    699.0      0.0    158.5       57    130.0    130.0      100     0.000     0.000     0.000     0.000      125        0        0        0       12        3        0    17.726       96     30.0    5.318     1.85       24        8     2042  1206_RCP85_rainfed_15April_sandyloam.PRM
  Tot(27)       15        4     2043   1956.2    372.9   1563.4   504.00      0.0   1956.2      0.0   1689.5      0.0    165.4       65     99.2     99.2      100     0.000     0.000     0.000     0.000      130        0        0        0       14        3        0    18.075       95     30.0    5.423     2.06       29        8     2043  1206_RCP85_rainfed_15April_sandyloam.PRM
  Tot(28)       15        4     2044   1868.1    355.3   1564.7   508.00      0.0   1868.1      0.0   1608.7      0.0    151.0       65     97.9     97.9      100     0.000     0.000     0.000     0.000      132        0        0        0       15        1        0    18.552       98     30.0    5.566     2.25       31        8     2044  1206_RCP85_rainfed_15April_sandyloam.PRM
  Tot(29)       15        4     2045   1153.8    400.5   1566.5   513.00      0.0   1153.8      0.0    896.8      0.0    143.8       55    112.2    112.2      100     0.000     0.000     0.000     0.000      126        0        0        0       12        4        0    17.735       94     30.0    5.320     2.09       26        8     2045  1206_RCP85_rainfed_15April_sandyloam.PRM
  Tot(30)       15        4     2046   1426.3    442.3   1559.9   519.00      0.0   1426.3      0.0   1207.2      0.0    115.1       33     98.0     98.0       93     0.000     0.000     0.000     0.000      113        0        0        0        9       36        2    11.025       64     30.2    3.333     1.58       12        8     2046  1206_RCP85_rainfed_15April_sandyloam.PRM
  Tot(31)       15        4     2047   1383.9    405.2   1562.7   524.00      0.0   1383.9      0.0   1081.9      0.0    166.1       62    123.7    123.7      100     0.000     0.000     0.000     0.000      119        0        0        0       10        9       -0    16.986       92     30.0    5.096     1.76       19        8     2047  1206_RCP85_rainfed_15April_sandyloam.PRM
  Tot(32)       15        4     2048   1652.4    363.2   1557.0   529.00      0.0   1652.4      0.0   1414.0      0.0    152.6       59     86.0     86.0      100     0.000     0.000     0.000     0.000      129        0        0        0       13        2        0    18.479       97     30.0    5.544     2.32       29        8     2048  1206_RCP85_rainfed_15April_sandyloam.PRM
  Tot(33)       15        4     2049   1402.0    372.3   1562.4   535.00      0.0   1402.0      0.0   1140.7      0.0    161.1       64    100.6    100.6      100     0.000     0.000     0.000     0.000      129        0        0        0       13        3        0    17.848       95     30.0    5.354     2.05       28        8     2049  1206_RCP85_rainfed_15April_sandyloam.PRM
  Tot(34)       15        4     2050   2185.1    392.8   1565.1   541.00      0.0   2185.1      0.0   1871.4      0.0    164.1       65    119.8    119.8      100     0.000     0.000     0.000     0.000      125        0        0        0       11        3       -0    17.897       96     30.0    5.369     1.90       26        8     2050  1206_RCP85_rainfed_15April_sandyloam.PRM
  Tot(35)       15        4     2051    984.7    407.4   1569.5   546.00      0.0    984.7      0.0    686.4      0.0    174.7       66    119.1    119.1       91     0.000     0.000     0.000     0.000      120        0        0        0       10       21        2    14.959       84     30.0    4.488     1.54       19        8     2051  1206_RCP85_rainfed_15April_sandyloam.PRM
  Tot(36)       15        4     2052   1643.1    443.4   1559.7   552.00      0.0   1643.1      0.0   1323.4      0.0    176.8       64    133.4    133.4       88     0.000     0.000     0.000     0.000      117        0        0        0        9       24        4    14.391       81     30.1    4.329     1.41       17        8     2052  1206_RCP85_rainfed_15April_sandyloam.PRM
  Tot(37)       15        4     2053   1169.3    387.0   1558.5   558.00      0.0   1169.3      0.0    823.6      0.0    154.2       62    122.3    122.3      100     0.000     0.000     0.000     0.000      123        0        0        0       11        2        0    18.232       97     30.0    5.470     1.99       22        8     2053  1206_RCP85_rainfed_15April_sandyloam.PRM
  Tot(38)       15        4     2054   1686.8    386.4   1564.5   564.00      0.0   1686.8      0.0   1432.8      0.0    140.8       52    103.2    103.2      100     0.000     0.000     0.000     0.000      123        0        0        0       11        4       -0    17.650       94     30.0    5.295     2.18       22        8     2054  1206_RCP85_rainfed_15April_sandyloam.PRM
  Tot(39)       15        4     2055   1062.0    381.8   1568.2   571.00      0.0   1062.0      0.0    773.1      0.0    155.1       65    129.6    129.6      100     0.000     0.000     0.000     0.000      115        0        0        0        8        4        0    17.030       95     30.0    5.109     1.80       15        8     2055  1206_RCP85_rainfed_15April_sandyloam.PRM
  Tot(40)       15        4     2056   1703.1    368.9   1567.1   577.00      0.0   1703.1      0.0   1456.0      0.0    146.5       58     99.3     99.3      100     0.000     0.000     0.000     0.000      124        0        0        0       11        5        0    17.713       94     30.0    5.314     2.18       24        8     2056  1206_RCP85_rainfed_15April_sandyloam.PRM
  Tot(41)       15        4     2057   1704.6    373.6   1563.5   583.00      0.0   1704.6      0.0   1467.0      0.0    128.5       48     97.5     97.5      100     0.000     0.000     0.000     0.000      116        0        0        0        8        9        0    16.675       91     30.0    5.002     2.22       15        8     2057  1206_RCP85_rainfed_15April_sandyloam.PRM
  Tot(42)       15        4     2058   1559.1    374.9   1557.4   590.00      0.0   1559.1      0.0   1321.2      0.0    130.8       51    100.5    100.5      100     0.000     0.000     0.000     0.000      121        0        0        0       10        5        0    17.458       93     30.0    5.237     2.26       20        8     2058  1206_RCP85_rainfed_15April_sandyloam.PRM
  Tot(43)       15        4     2059   1851.2    373.9   1558.1   597.00      0.0   1851.2      0.0   1590.4      0.0    130.1       49     99.9     99.9      100     0.000     0.000     0.000     0.000      116        0        0        0        8        6        0    17.001       93     30.0    5.100     2.23       17        8     2059  1206_RCP85_rainfed_15April_sandyloam.PRM
  Tot(44)       15        4     2060   1692.1    397.4   1557.2   604.00      0.0   1692.1      0.0   1442.2      0.0    132.9       48    109.0    109.0       98     0.000     0.000     0.000     0.000      119        0        0        0        9       12        0    16.676       91     30.0    5.003     2.07       18        8     2060  1206_RCP85_rainfed_15April_sandyloam.PRM
  Tot(45)       15        4     2061   1356.2    376.1   1560.4   611.00      0.0   1356.2      0.0   1070.7      0.0    152.9       66    129.0    129.0      100     0.000     0.000     0.000     0.000      116        0        0        0        8        4        0    17.768       97     30.0    5.330     1.90       15        8     2061  1206_RCP85_rainfed_15April_sandyloam.PRM
  Tot(46)       15        4     2062   1537.7    368.7   1566.5   618.00      0.0   1537.7      0.0   1235.0      0.0    174.4       76    117.8    117.8      100     0.000     0.000     0.000     0.000      121        0        0        0       10        1        0    18.163       98     30.0    5.449     1.87       20        8     2062  1206_RCP85_rainfed_15April_sandyloam.PRM
  Tot(47)       15        4     2063   1617.5    338.2   1569.2   625.00      0.0   1617.5      0.0   1398.0      0.0    133.1       57     88.3     88.3      100     0.000     0.000     0.000     0.000      123        0        0        0       10        4        0    17.881       94     30.0    5.364     2.44       23        8     2063  1206_RCP85_rainfed_15April_sandyloam.PRM
  Tot(48)       15        4     2064   1273.8    413.4   1567.2   632.00      0.0   1273.8      0.0    993.1      0.0    160.5       57    120.2    120.2      100     0.000     0.000     0.000     0.000      117        0        0        0        8        9        0    16.930       93     30.0    5.079     1.83       17        8     2064  1206_RCP85_rainfed_15April_sandyloam.PRM
  Tot(49)       15        4     2065   1600.3    346.1   1559.3   639.00      0.0   1600.3      0.0   1312.9      0.0    178.3       78     98.7     98.7      100     0.000     0.000     0.000     0.000      122        0        0        0       10        0        0    18.731       99     30.0    5.619     2.03       21        8     2065  1206_RCP85_rainfed_15April_sandyloam.PRM
  Tot(50)       15        4     2066   1876.9    372.4   1564.2   647.00      0.0   1876.9      0.0   1621.4      0.0    147.1       58    109.3    109.3      100     0.000     0.000     0.000     0.000      117        0        0        0        9        3        0    17.684       96     30.0    5.305     2.08       16        8     2066  1206_RCP85_rainfed_15April_sandyloam.PRM
  Tot(51)       15        4     2067   1887.7    366.7   1560.0   654.00      0.0   1887.7      0.0   1648.4      0.0    135.5       53    103.2    103.2      100     0.000     0.000     0.000     0.000      115        0        0        0        7        3       -0    17.439       95     30.0    5.232     2.21       14        8     2067  1206_RCP85_rainfed_15April_sandyloam.PRM
  Tot(52)       15        4     2068   1721.7    352.4   1557.3   662.00      0.0   1721.7      0.0   1463.7      0.0    148.4       66    107.4    107.4      100     0.000     0.000     0.000     0.000      119        0        0        0        9        2        0    18.097       97     30.0    5.429     2.12       17        8     2068  1206_RCP85_rainfed_15April_sandyloam.PRM
  Tot(53)       15        4     2069   1559.6    355.3   1568.4   669.00      0.0   1559.6      0.0   1293.0      0.0    167.3       72    100.3    100.3      100     0.000     0.000     0.000     0.000      117        0        0        0        8        1        0    18.154       98     30.0    5.446     2.06       18        8     2069  1206_RCP85_rainfed_15April_sandyloam.PRM
  Tot(54)       15        4     2070   1561.2    346.5   1562.3   677.00      0.0   1561.2      0.0   1289.7      0.0    151.4       67     98.3     98.3      100     0.000     0.000     0.000     0.000      117        0        0        0        8        2       -0    18.287       97     30.0    5.486     2.22       16        8     2070  1206_RCP85_rainfed_15April_sandyloam.PRM
  Tot(55)       15        4     2071   1770.0    306.6   1560.9   685.00      0.0   1770.0      0.0   1512.4      0.0    168.4       89     92.0     92.0      100     0.000     0.000     0.000     0.000      124        0        0        0       11        0        0    18.889       99     30.0    5.667     2.19       23        8     2071  1206_RCP85_rainfed_15April_sandyloam.PRM
  Tot(56)       15        4     2072   1710.7    310.9   1560.0   693.00      0.0   1710.7      0.0   1447.4      0.0    149.8       73     85.5     85.5      100     0.000     0.000     0.000     0.000      119        0        0        0        9        1       -0    18.481       98     30.0    5.544     2.37       17        8     2072  1206_RCP85_rainfed_15April_sandyloam.PRM
  Tot(57)       15        4     2073   1078.5    433.7   1562.3   701.00      0.0   1078.5      0.0    833.0      0.0    110.0       37    121.4    121.4       90     0.000     0.000     0.000     0.000      106        0        0        0        5       29        3    12.642       74     30.3    3.836     1.66        4        8     2073  1206_RCP85_rainfed_15April_sandyloam.PRM
  Tot(58)       15        4     2074   1337.6    376.7   1569.8   709.00      0.0   1337.6      0.0   1051.9      0.0    166.3       72    121.0    121.0      100     0.000     0.000     0.000     0.000      115        0        0        0        8        2        0    17.701       97     30.0    5.310     1.86       14        8     2074  1206_RCP85_rainfed_15April_sandyloam.PRM
  Tot(59)       15        4     2075   1843.8    418.3   1560.2   717.00      0.0   1843.8      0.0   1556.2      0.0    144.0       55    136.5    136.5      100     0.000     0.000     0.000     0.000      109        0        0        0        6        5        0    16.648       94     30.1    5.003     1.79        7        8     2075  1206_RCP85_rainfed_15April_sandyloam.PRM
  Tot(60)       15        4     2076   1923.6    289.9   1566.0   725.00      0.0   1923.6      0.0   1690.3      0.0    151.8       81     76.2     76.2      100     0.000     0.000     0.000     0.000      124        0        0        0       10        0        0    19.061       99     30.0    5.718     2.53       23        8     2076  1206_RCP85_rainfed_15April_sandyloam.PRM
  Tot(61)       15        4     2077   1440.7    315.5   1557.3   733.00      0.0   1440.7      0.0   1179.3      0.0    150.5       79    107.2    107.2      100     0.000     0.000     0.000     0.000      117        0        0        0        8        2        0    18.213       98     30.0    5.464     2.12       15        8     2077  1206_RCP85_rainfed_15April_sandyloam.PRM
  Tot(62)       15        4     2078   2010.3    355.6   1564.4   742.00      0.0   2010.3      0.0   1812.1      0.0    114.9       43     80.9     80.9      100     0.000     0.000     0.000     0.000      112        0        0        0        6        7       -0    17.057       91     30.0    5.117     2.63       10        8     2078  1206_RCP85_rainfed_15April_sandyloam.PRM
  Tot(63)       15        4     2079   1331.3    381.1   1569.7   750.00      0.0   1331.3      0.0   1091.3      0.0    134.8       52    100.2    100.2      100     0.000     0.000     0.000     0.000      114        0        0        0        7        5        0    17.777       95     30.0    5.333     2.29       13        8     2079  1206_RCP85_rainfed_15April_sandyloam.PRM
  Tot(64)       15        4     2080   1705.6    394.4   1561.6   758.00      0.0   1705.6      0.0   1459.3      0.0    132.1       50    106.4    106.4      100     0.000     0.000     0.000     0.000      110        0        0        0        6        6       -0    16.541       92     30.0    4.962     2.09        8        8     2080  1206_RCP85_rainfed_15April_sandyloam.PRM
  Tot(65)       15        4     2081   1807.4    334.5   1563.1   767.00      0.0   1807.4      0.0   1563.5      0.0    156.0       68     86.9     86.9      100     0.000     0.000     0.000     0.000      114        0        0        0        7        3        0    17.717       95     30.0    5.315     2.21       13        8     2081  1206_RCP85_rainfed_15April_sandyloam.PRM
  Tot(66)       15        4     2082   1714.0    299.2   1566.3   775.00      0.0   1714.0      0.0   1478.6      0.0    149.4       79     81.8     81.8      100     0.000     0.000     0.000     0.000      121        0        0        0        9        0        0    18.908       99     30.0    5.672     2.46       20        8     2082  1206_RCP85_rainfed_15April_sandyloam.PRM
  Tot(67)       15        4     2083   1416.4    398.6   1569.7   784.00      0.0   1416.4      0.0   1113.9      0.0    160.2       67    139.4    139.4      100     0.000     0.000     0.000     0.000      109        0        0        0        6        2        0    17.171       97     30.0    5.151     1.73        7        8     2083  1206_RCP85_rainfed_15April_sandyloam.PRM
  Tot(68)       15        4     2084   1616.6    368.9   1566.7   792.00      0.0   1616.6      0.0   1288.5      0.0    184.0       82    122.0    122.0      100     0.000     0.000     0.000     0.000      108        0        0        0        5        1        0    17.289       99     30.0    5.187     1.70        7        8     2084  1206_RCP85_rainfed_15April_sandyloam.PRM
  Tot(69)       15        4     2085   1616.3    331.7   1557.8   801.00      0.0   1616.3      0.0   1396.6      0.0    119.4       53     88.8     88.8      100     0.000     0.000     0.000     0.000      111        0        0        0        6        4        0    17.573       94     30.0    5.272     2.56       11        8     2085  1206_RCP85_rainfed_15April_sandyloam.PRM
  Tot(70)       15        4     2086   1032.7    333.5   1559.7   810.00      0.0   1032.7      0.0    775.0      0.0    114.9       57    114.0    114.0      100     0.000     0.000     0.000     0.000      108        0        0        0        5        2        0    17.349       97     30.0    5.205     2.28        6        8     2086  1206_RCP85_rainfed_15April_sandyloam.PRM
  Tot(71)       15        4     2087   1016.0    334.5   1560.6   818.00      0.0   1016.0      0.0    706.5      0.0    163.5       85    122.6    122.6      100     0.000     0.000     0.000     0.000      106        0        0        0        4        1       -0    17.440       99     30.0    5.232     1.84        4        8     2087  1206_RCP85_rainfed_15April_sandyloam.PRM
  Tot(72)       15        4     2088   1957.9    352.4   1562.1   827.00      0.0   1957.9      0.0   1699.4      0.0    147.0       65    108.7    108.7      100     0.000     0.000     0.000     0.000      109        0        0        0        5        1        0    17.635       98     30.0    5.291     2.08        7        8     2088  1206_RCP85_rainfed_15April_sandyloam.PRM
  Tot(73)       15        4     2089   1255.6    357.6   1567.3   836.00      0.0   1255.6      0.0   1046.3      0.0    119.9       47     86.3     86.3      100     0.000     0.000     0.000     0.000      108        0        0        0        5        6        0    16.633       91     30.0    4.990     2.44        7        8     2089  1206_RCP85_rainfed_15April_sandyloam.PRM
  Tot(74)       15        4     2090   1287.6    370.4   1557.7   845.00      0.0   1287.6      0.0   1065.5      0.0    125.2       47     95.7     95.7      100     0.000     0.000     0.000     0.000      107        0        0        0        5        8        0    16.464       92     30.0    4.939     2.26        6        8     2090  1206_RCP85_rainfed_15April_sandyloam.PRM
  Tot(75)       15        4     2091   1382.9    366.6   1568.1   854.00      0.0   1382.9      0.0   1098.0      0.0    164.2       70    119.2    119.2      100     0.000     0.000     0.000     0.000      104        0        0        0        4       16        0    15.750       93     30.0    4.725     1.68        4        8     2091  1206_RCP85_rainfed_15April_sandyloam.PRM
  Tot(76)       15        4     2092   1876.7    326.8   1567.3   863.00      0.0   1876.7      0.0   1614.0      0.0    161.7       79    101.8    101.8      100     0.000     0.000     0.000     0.000      111        0        0        0        6        2        0    18.056       99     30.0    5.417     2.08       10        8     2092  1206_RCP85_rainfed_15April_sandyloam.PRM
  Tot(77)       15        4     2093    942.4    339.9   1557.9   872.00      0.0    942.4      0.0    693.6      0.0    140.3       61     89.8     89.8      100     0.000     0.000     0.000     0.000      105        0        0        0        4        3        0    17.000       96     30.0    5.100     2.24        4        8     2093  1206_RCP85_rainfed_15April_sandyloam.PRM
  Tot(78)       15        4     2094   1338.2    314.1   1566.3   881.00      0.0   1338.2      0.0   1056.9      0.0    157.0       77     88.4     88.4      100     0.000     0.000     0.000     0.000      110        0        0        0        5        1        0    17.730       98     30.0    5.319     2.18       10        8     2094  1206_RCP85_rainfed_15April_sandyloam.PRM
  Tot(79)       15        4     2095   1604.2    294.2   1561.3   890.00      0.0   1604.2      0.0   1313.9      0.0    161.0       93     97.5     97.5      100     0.000     0.000     0.000     0.000      110        0        0        0        5        0        0    18.148       99     30.0    5.444     2.11        9        8     2095  1206_RCP85_rainfed_15April_sandyloam.PRM
  Tot(80)       15        4     2096   1337.4    361.3   1562.6   899.00      0.0   1337.4      0.0   1032.0      0.0    175.3       79    113.9    113.9      100     0.000     0.000     0.000     0.000      108        0        0        0        5        2        0    17.457       98     30.0    5.237     1.82        7        8     2096  1206_RCP85_rainfed_15April_sandyloam.PRM
  Tot(81)       15        4     2097   1555.4    309.4   1558.6   908.00      0.0   1555.4      0.0   1320.6      0.0    141.8       70     84.7     84.7      100     0.000     0.000     0.000     0.000      109        0        0        0        5        1        0    18.058       99     30.0    5.418     2.41        7        8     2097  1206_RCP85_rainfed_15April_sandyloam.PRM
  Tot(82)       15        4     2098   1293.5    307.6   1567.5   917.00      0.0   1293.5      0.0   1035.2      0.0    164.2       86     91.5     91.5      100     0.000     0.000     0.000     0.000      109        0        0        0        5        0       -0    17.881       99     30.0    5.364     2.11        7        8     2098  1206_RCP85_rainfed_15April_sandyloam.PRM
  Tot(83)       15        4     2099   1923.8    321.6   1568.9   927.00      0.0   1923.8      0.0   1663.8      0.0    145.3       68     82.3     82.3      100     0.000     0.000     0.000     0.000      107        0        0        0        4        2        0    17.515       96     30.0    5.255     2.33        6        8     2099  1206_RCP85_rainfed_15April_sandyloam.PRM
