AquaCrop 6.0 (March 2017) - Output created on (date) : 28/06/2021   at (time) : 13:53:12

    RunNr     Day1   Month1    Year1     Rain      ETo       GD     CO2      Irri   Infilt   Runoff    Drain   Upflow        E     E/Ex       Tr      TrW   Tr/Trx    SaltIn   SaltOut    SaltUp  SaltProf     Cycle   SaltStr  FertStr  WeedStr  TempStr   ExpStr   StoStr  BioMass  Brelative   HI     Yield     WPet     DayN   MonthN    YearN
                                           mm       mm    °C.day    ppm        mm       mm       mm       mm       mm       mm        %       mm       mm        %    ton/ha    ton/ha    ton/ha    ton/ha      days       %        %        %        %        %        %    ton/ha        %       %    ton/ha    kg/m3
   Tot(1)       15        5     2017   1872.0    369.4   1560.2   407.00      0.0   1872.0      0.0   1585.2      0.0    190.2       97    102.6    102.6      100     0.000     0.000     0.000     0.000      146        0        0        0       23        0        0    18.498       99     30.0    5.549     1.91       15       10     2017  1206_RCP85_net_15May_loam.PRM
   Tot(2)       15        5     2018   1552.8    348.5   1558.0   410.00     36.6   1552.8      0.0   1311.6      0.0    173.4       89    102.1    102.1      100     0.000     0.000     0.000     0.000      138        0        0        0       19        0        0    18.551      100     30.0    5.565     2.04        6       10     2018  1206_RCP85_net_15May_loam.PRM
   Tot(3)       15        5     2019   1664.9    372.4   1564.3   413.00     58.0   1664.9      0.0   1395.3      0.0    213.9       91    111.9    111.9      100     0.000     0.000     0.000     0.000      129        0        0        0       14        0        0    18.269       99     30.0    5.481     1.69       27        9     2019  1206_RCP85_net_15May_loam.PRM
   Tot(4)       15        5     2020   1555.7    349.7   1562.0   416.00     45.4   1555.7      0.0   1313.4      0.0    185.8       90     92.1     92.1      100     0.000     0.000     0.000     0.000      141        0        0        0       21        0        0    18.591       99     30.0    5.577     2.02        9       10     2020  1206_RCP85_net_15May_loam.PRM
   Tot(5)       15        5     2021   1654.4    391.6   1559.2   419.00     43.8   1654.4      0.0   1426.3      0.0    192.1       85     97.7     97.7      100     0.000     0.000     0.000     0.000      145        0        0        0       23        0        0    18.631       99     30.0    5.589     1.94       14       10     2021  1206_RCP85_net_15May_loam.PRM
   Tot(6)       15        5     2022   1205.3    402.9   1557.6   422.00    156.3   1205.3      0.0   1026.5      0.0    207.1       79    122.5    122.5      100     0.000     0.000     0.000     0.000      124        0        0        0       13        0        0    17.903       99     30.0    5.371     1.63       22        9     2022  1206_RCP85_net_15May_loam.PRM
   Tot(7)       15        5     2023   1535.7    353.7   1558.8   425.00      0.3   1535.7      0.0   1263.5      0.0    182.9       97    102.2    102.2      100     0.000     0.000     0.000     0.000      143        0        0        0       22        0        0    18.681       99     30.0    5.604     1.98       12       10     2023  1206_RCP85_net_15May_loam.PRM
   Tot(8)       15        5     2024   1939.9    343.7   1558.5   428.00     32.4   1939.9      0.0   1716.2      0.0    174.4       88     93.5     93.5      100     0.000     0.000     0.000     0.000      140        0        0        0       20        0        0    18.708       99     30.0    5.612     2.11        8       10     2024  1206_RCP85_net_15May_loam.PRM
   Tot(9)       15        5     2025   1262.3    363.9   1564.4   431.00     21.7   1262.3      0.0    973.1      0.0    189.6       91    110.2    110.2      100     0.000     0.000     0.000     0.000      137        0        0        0       18        0        0    18.683       99     30.0    5.605     1.88        5       10     2025  1206_RCP85_net_15May_loam.PRM
  Tot(10)       15        5     2026   1485.3    423.3   1557.4   435.00    175.0   1485.3      0.0   1311.0      0.0    224.5       81    127.9    127.9      100     0.000     0.000     0.000     0.000      122        0        0        0       12        1        0    17.914       99     30.0    5.374     1.53       19        9     2026  1206_RCP85_net_15May_loam.PRM
  Tot(11)       15        5     2027   1411.9    378.3   1563.8   438.00     34.2   1411.9      0.0   1149.4      0.0    192.4       83    105.9    105.9      100     0.000     0.000     0.000     0.000      137        0        0        0       19        0        0    18.655       99     30.0    5.597     1.89        5       10     2027  1206_RCP85_net_15May_loam.PRM
  Tot(12)       15        5     2028   1823.7    358.8   1560.8   442.00     50.9   1823.7      0.0   1595.8      0.0    196.6       87     84.7     84.7      100     0.000     0.000     0.000     0.000      137        0        0        0       19        0        0    18.731       99     30.0    5.619     2.01        5       10     2028  1206_RCP85_net_15May_loam.PRM
  Tot(13)       15        5     2029   1450.2    338.9   1565.5   445.00     16.8   1450.2      0.0   1184.4      0.0    183.3       94    103.8    103.8      100     0.000     0.000     0.000     0.000      129        0        0        0       14        0       -0    18.674       99     30.0    5.602     1.97       28        9     2029  1206_RCP85_net_15May_loam.PRM
  Tot(14)       15        5     2030   1828.0    353.4   1565.3   449.00     30.1   1828.0      0.0   1551.2      0.0    205.2       93     97.4     97.4      100     0.000     0.000     0.000     0.000      127        0        0        0       12        0        0    18.712       99     30.0    5.614     1.87       25        9     2030  1206_RCP85_net_15May_loam.PRM
  Tot(15)       15        5     2031   1952.4    404.4   1561.4   452.00     34.0   1952.4      0.0   1701.8      0.0    194.7       83    108.7    108.7      100     0.000     0.000     0.000     0.000      133        0        0        0       16        0       -0    18.805       99     30.0    5.641     1.87        1       10     2031  1206_RCP85_net_15May_loam.PRM
  Tot(16)       15        5     2032   1577.2    377.0   1564.8   456.00     45.7   1577.2      0.0   1332.6      0.0    195.0       86     99.7     99.7      100     0.000     0.000     0.000     0.000      133        0        0        0       16        0        0    18.698       99     30.0    5.609     1.92       30        9     2032  1206_RCP85_net_15May_loam.PRM
  Tot(17)       15        5     2033   1370.8    377.5   1558.6   460.00     52.5   1370.8      0.0   1115.2      0.0    207.9       91    102.2    102.2      100     0.000     0.000     0.000     0.000      132        0        0        0       17        0        0    18.768       99     30.0    5.630     1.82       30        9     2033  1206_RCP85_net_15May_loam.PRM
  Tot(18)       15        5     2034   2345.7    328.1   1560.5   464.00     18.0   2345.7      0.0   2088.1      0.0    177.0       96    104.5    104.5      100     0.000     0.000     0.000     0.000      139        0        0        0       21        0        0    18.617       99     30.0    5.585     1.99        7       10     2034  1206_RCP85_net_15May_loam.PRM
  Tot(19)       15        5     2035   1380.9    384.3   1557.1   468.00     24.6   1380.9      0.0   1091.8      0.0    195.3       89    104.3    104.3      100     0.000     0.000     0.000     0.000      139        0        0        0       19        0        0    18.858       99     30.0    5.658     1.89        6       10     2035  1206_RCP85_net_15May_loam.PRM
  Tot(20)       15        5     2036   1646.4    321.5   1557.4   472.00      3.4   1646.4      0.0   1390.5      0.0    164.5       96     98.7     98.7      100     0.000     0.000     0.000     0.000      132        0        0        0       15        0        0    18.841       99     30.0    5.652     2.15       29        9     2036  1206_RCP85_net_15May_loam.PRM
  Tot(21)       15        5     2037   2112.3    332.5   1558.0   476.00      0.0   2112.3      0.0   1842.0      0.0    168.6       98    104.1    104.1      100     0.000     0.000     0.000     0.000      143        0        0        0       21        0        0    19.017       99     30.0    5.705     2.10       11       10     2037  1206_RCP85_net_15May_loam.PRM
  Tot(22)       15        5     2038   1751.6    335.5   1557.4   481.00     18.8   1751.6      0.0   1502.5      0.0    172.1       87     98.0     98.0      100     0.000     0.000     0.000     0.000      139        0        0        0       20        0        0    18.756       99     30.0    5.627     2.08        7       10     2038  1206_RCP85_net_15May_loam.PRM
  Tot(23)       15        5     2039   1296.0    369.0   1563.3   485.00     62.9   1296.0      0.0   1038.3      0.0    203.9       92    109.5    109.5      100     0.000     0.000     0.000     0.000      125        0        0        0       12        0       -0    18.606       99     30.0    5.582     1.79       24        9     2039  1206_RCP85_net_15May_loam.PRM
  Tot(24)       15        5     2040   1588.7    338.8   1558.3   489.00     19.3   1588.7      0.0   1355.9      0.0    178.2       93     87.3     87.3      100     0.000     0.000     0.000     0.000      138        0        0        0       19        0        0    19.009       99     30.0    5.703     2.16        5       10     2040  1206_RCP85_net_15May_loam.PRM
  Tot(25)       15        5     2041   1464.3    364.7   1564.3   494.00     29.7   1464.3      0.0   1212.3      0.0    193.9       90    102.2    102.2      100     0.000     0.000     0.000     0.000      127        0        0        0       12        0        0    18.867       99     30.0    5.660     1.92       25        9     2041  1206_RCP85_net_15May_loam.PRM
  Tot(26)       15        5     2042   1010.0    359.1   1558.1   499.00     31.2   1010.0      0.0    754.3      0.0    194.5       88    100.4    100.4      100     0.000     0.000     0.000     0.000      130        0        0        0       15        0        0    18.803       99     30.0    5.641     1.93       28        9     2042  1206_RCP85_net_15May_loam.PRM
  Tot(27)       15        5     2043   2060.5    319.6   1559.4   504.00      6.5   2060.5      0.0   1805.0      0.0    169.4       96     90.4     90.4      100     0.000     0.000     0.000     0.000      140        0        0        0       20        0        0    18.968      100     30.0    5.690     2.21        8       10     2043  1206_RCP85_net_15May_loam.PRM
  Tot(28)       15        5     2044   1836.7    320.5   1562.9   508.00      4.8   1836.7      0.0   1596.0      0.0    162.5       96     93.9     93.9      100     0.000     0.000     0.000     0.000      139        0        0        0       19        0        0    19.149       99     30.0    5.745     2.25        7       10     2044  1206_RCP85_net_15May_loam.PRM
  Tot(29)       15        5     2045   1201.3    344.4   1557.3   513.00     21.0   1201.3      0.0    949.5      0.0    167.1       89    113.9    113.9      100     0.000     0.000     0.000     0.000      130        0        0        0       14        0        0    18.893       99     30.0    5.668     2.02       26        9     2045  1206_RCP85_net_15May_loam.PRM
  Tot(30)       15        5     2046   1635.3    359.6   1558.9   519.00     95.3   1635.3      0.0   1446.3      0.0    190.4       82     97.6     97.6      100     0.000     0.000     0.000     0.000      122        0        0        0       12        0        0    18.569       99     30.0    5.571     1.95       19        9     2046  1206_RCP85_net_15May_loam.PRM
  Tot(31)       15        5     2047   1478.5    337.8   1563.7   524.00     55.0   1478.5      0.0   1251.6      0.0    187.3       88     95.0     95.0      100     0.000     0.000     0.000     0.000      126        0        0        0       14        0        0    18.675       99     30.0    5.602     2.00       24        9     2047  1206_RCP85_net_15May_loam.PRM
  Tot(32)       15        5     2048   1731.9    303.1   1560.4   529.00      0.0   1731.9      0.0   1483.6      0.0    161.3       96     85.8     85.8      100     0.000     0.000     0.000     0.000      140        0        0        0       21        0       -0    19.167       99     30.0    5.750     2.34        8       10     2048  1206_RCP85_net_15May_loam.PRM
  Tot(33)       15        5     2049   1439.1    312.7   1561.5   535.00      0.0   1439.1      0.0   1186.7      0.0    171.9       97     90.0     90.0      100     0.000     0.000     0.000     0.000      132        0        0        0       15        0        0    19.084       99     30.0    5.725     2.21       30        9     2049  1206_RCP85_net_15May_loam.PRM
  Tot(34)       15        5     2050   2185.4    349.8   1557.6   541.00     21.8   2185.4      0.0   1910.6      0.0    187.2       93    105.1    105.1      100     0.000     0.000     0.000     0.000      129        0        0        0       14        0        0    18.740       99     30.0    5.622     1.93       27        9     2050  1206_RCP85_net_15May_loam.PRM
  Tot(35)       15        5     2051   1070.6    359.0   1566.4   546.00     98.1   1070.6      0.0    870.1      0.0    199.4       87     98.6     98.6      100     0.000     0.000     0.000     0.000      124        0        0        0       12        0        0    18.734       99     30.0    5.620     1.90       21        9     2051  1206_RCP85_net_15May_loam.PRM
  Tot(36)       15        5     2052   1738.6    377.6   1558.5   552.00    104.8   1738.6      0.0   1538.1      0.0    210.3       87    105.6    105.6      100     0.000     0.000     0.000     0.000      120        0        0        0       10        0        0    18.577       99     30.0    5.573     1.78       18        9     2052  1206_RCP85_net_15May_loam.PRM
  Tot(37)       15        5     2053   1175.4    348.0   1558.3   558.00     21.9   1175.4      0.0    901.0      0.0    189.0       92     95.8     95.8      100     0.000     0.000     0.000     0.000      125        0        0        0       11        0        0    18.914       99     30.0    5.674     2.00       23        9     2053  1206_RCP85_net_15May_loam.PRM
  Tot(38)       15        5     2054   1849.9    311.8   1560.0   564.00      3.6   1849.9      0.0   1603.8      0.0    171.9       94     84.6     84.6      100     0.000     0.000     0.000     0.000      130        0        0        0       15        0        0    19.068       99     30.0    5.721     2.24       28        9     2054  1206_RCP85_net_15May_loam.PRM
  Tot(39)       15        5     2055   1180.0    313.0   1559.5   571.00     33.5   1180.0      0.0    938.6      0.0    175.7       95     97.6     97.6      100     0.000     0.000     0.000     0.000      122        0        0        0       11        0        0    18.675       99     30.0    5.602     2.06       19        9     2055  1206_RCP85_net_15May_loam.PRM
  Tot(40)       15        5     2056   1769.7    324.0   1565.1   577.00     30.5   1769.7      0.0   1544.0      0.0    173.3       93     91.6     91.6      100     0.000     0.000     0.000     0.000      128        0        0        0       13        0        0    19.015       99     30.0    5.704     2.18       25        9     2056  1206_RCP85_net_15May_loam.PRM
  Tot(41)       15        5     2057   1804.3    297.8   1559.6   583.00     40.3   1804.3      0.0   1585.7      0.0    161.8       92     89.0     89.0      100     0.000     0.000     0.000     0.000      121        0        0        0       10        0        0    18.795       99     30.0    5.638     2.26       18        9     2057  1206_RCP85_net_15May_loam.PRM
  Tot(42)       15        5     2058   1685.3    323.0   1560.4   590.00      3.4   1685.3      0.0   1431.8      0.0    163.6       96    100.3    100.3      100     0.000     0.000     0.000     0.000      128        0        0        0       13        0        0    18.960       99     30.0    5.688     2.17       26        9     2058  1206_RCP85_net_15May_loam.PRM
  Tot(43)       15        5     2059   2021.6    336.3   1566.7   597.00     21.7   2021.6      0.0   1793.5      0.0    183.2       92     83.1     83.1      100     0.000     0.000     0.000     0.000      123        0        0        0       11        0        0    18.945       99     30.0    5.683     2.14       20        9     2059  1206_RCP85_net_15May_loam.PRM
  Tot(44)       15        5     2060   1996.6    333.9   1565.2   604.00     75.7   1996.6      0.0   1806.3      0.0    182.7       83     82.1     82.1      100     0.000     0.000     0.000     0.000      125        0        0        0       13        0        0    18.926       99     30.0    5.678     2.16       23        9     2060  1206_RCP85_net_15May_loam.PRM
  Tot(45)       15        5     2061   1466.4    327.6   1560.2   611.00     45.1   1466.4      0.0   1248.8      0.0    179.2       91     88.1     88.1      100     0.000     0.000     0.000     0.000      125        0        0        0       13        0        0    18.970       99     30.0    5.691     2.15       23        9     2061  1206_RCP85_net_15May_loam.PRM
  Tot(46)       15        5     2062   1495.9    320.4   1557.7   618.00     26.7   1495.9      0.0   1249.9      0.0    180.9       91     91.0     91.0      100     0.000     0.000     0.000     0.000      122        0        0        0       11        0       -0    18.931       99     30.0    5.679     2.11       20        9     2062  1206_RCP85_net_15May_loam.PRM
  Tot(47)       15        5     2063   1644.9    295.2   1565.5   625.00      0.0   1644.9      0.0   1393.6      0.0    151.1       99     93.4     93.4      100     0.000     0.000     0.000     0.000      126        0        0        0       12        0       -0    18.963       99     30.0    5.689     2.34       25        9     2063  1206_RCP85_net_15May_loam.PRM
  Tot(48)       15        5     2064   1337.5    345.2   1559.1   632.00     68.3   1337.5      0.0   1106.7      0.0    183.9       88     99.4     99.4      100     0.000     0.000     0.000     0.000      117        0        0        0        9        0        0    18.824       99     30.0    5.647     2.00       15        9     2064  1206_RCP85_net_15May_loam.PRM
  Tot(49)       15        5     2065   1711.9    288.5   1566.0   639.00     16.6   1711.9      0.0   1485.9      0.0    156.4       94     85.1     85.1      100     0.000     0.000     0.000     0.000      130        0        0        0       14        0       -0    18.986       99     30.0    5.696     2.37       28        9     2065  1206_RCP85_net_15May_loam.PRM
  Tot(50)       15        5     2066   1864.9    325.0   1559.2   647.00     26.9   1864.9      0.0   1634.1      0.0    172.6       92     93.0     93.0      100     0.000     0.000     0.000     0.000      121        0        0        0       11        0        0    18.959       99     30.0    5.688     2.16       19        9     2066  1206_RCP85_net_15May_loam.PRM
  Tot(51)       15        5     2067   1909.7    313.3   1558.8   654.00     12.6   1909.7      0.0   1671.4      0.0    162.6       91     91.8     91.8      100     0.000     0.000     0.000     0.000      116        0        0        0        8        0        0    18.799       99     30.0    5.640     2.24       14        9     2067  1206_RCP85_net_15May_loam.PRM
  Tot(52)       15        5     2068   1750.3    303.2   1558.2   662.00     20.6   1750.3      0.0   1521.4      0.0    156.5       96     95.7     95.7      100     0.000     0.000     0.000     0.000      124        0        0        0       12        0        0    19.050       99     30.0    5.715     2.27       22        9     2068  1206_RCP85_net_15May_loam.PRM
  Tot(53)       15        5     2069   1670.2    298.6   1560.5   669.00     17.2   1670.2      0.0   1425.0      0.0    156.5       94     98.0     98.0      100     0.000     0.000     0.000     0.000      118        0        0        0        9        0       -0    18.739       99     30.0    5.622     2.23       16        9     2069  1206_RCP85_net_15May_loam.PRM
  Tot(54)       15        5     2070   1773.5    296.2   1559.2   677.00      0.0   1773.5      0.0   1521.1      0.0    157.1       98     92.3     92.3      100     0.000     0.000     0.000     0.000      120        0        0        0        9        0        0    19.013       99     30.0    5.704     2.31       18        9     2070  1206_RCP85_net_15May_loam.PRM
  Tot(55)       15        5     2071   1698.8    282.6   1564.3   685.00      5.5   1698.8      0.0   1473.8      0.0    148.2       96     85.3     85.3      100     0.000     0.000     0.000     0.000      125        0        0        0       11        0        0    19.080       99     30.0    5.724     2.47       23        9     2071  1206_RCP85_net_15May_loam.PRM
  Tot(56)       15        5     2072   1848.7    284.7   1564.4   693.00      0.0   1848.7      0.0   1623.8      0.0    148.9       98     81.9     81.9      100     0.000     0.000     0.000     0.000      120        0        0        0        9        0        0    18.977       99     30.0    5.693     2.49       18        9     2072  1206_RCP85_net_15May_loam.PRM
  Tot(57)       15        5     2073   1228.5    348.9   1561.9   701.00    102.1   1228.5      0.0   1044.7      0.0    190.9       86     92.7     92.7      100     0.000     0.000     0.000     0.000      113        0        0        0        8        0       -0    18.487       99     30.0    5.546     1.97       10        9     2073  1206_RCP85_net_15May_loam.PRM
  Tot(58)       15        5     2074   1363.5    350.5   1566.8   709.00      5.0   1363.5      0.0   1077.0      0.0    195.0       97    100.5    100.5      100     0.000     0.000     0.000     0.000      117        0        0        0        8        0        0    18.738       99     30.0    5.622     1.92       15        9     2074  1206_RCP85_net_15May_loam.PRM
  Tot(59)       15        5     2075   1980.0    336.6   1562.8   717.00     36.0   1980.0      0.0   1714.6      0.0    185.8       94    106.8    106.8      100     0.000     0.000     0.000     0.000      112        0        0        0        7        0        0    18.505       99     30.0    5.551     1.90       10        9     2075  1206_RCP85_net_15May_loam.PRM
  Tot(60)       15        5     2076   1921.0    250.4   1559.7   725.00      0.0   1921.0      0.0   1713.5      0.0    128.1       99     78.0     78.0      100     0.000     0.000     0.000     0.000      130        0        0        0       14        0        0    19.279       99     30.0    5.784     2.83       28        9     2076  1206_RCP85_net_15May_loam.PRM
  Tot(61)       15        5     2077   1427.0    284.7   1566.6   733.00     26.4   1427.0      0.0   1226.8      0.0    151.5       91     83.2     83.2      100     0.000     0.000     0.000     0.000      119        0        0        0        9        0        0    18.700       99     30.0    5.610     2.41       17        9     2077  1206_RCP85_net_15May_loam.PRM
  Tot(62)       15        5     2078   2225.7    264.1   1560.6   742.00      9.1   2225.7      0.0   2031.9      0.0    131.1       86     77.9     77.9      100     0.000     0.000     0.000     0.000      119        0        0        0        9        0        0    18.795       99     30.0    5.638     2.72       16        9     2078  1206_RCP85_net_15May_loam.PRM
  Tot(63)       15        5     2079   1401.6    338.0   1568.2   750.00     38.9   1401.6      0.0   1152.8      0.0    165.4       86     97.5     97.5      100     0.000     0.000     0.000     0.000      117        0        0        0        8        0        0    18.597       99     30.0    5.579     2.13       14        9     2079  1206_RCP85_net_15May_loam.PRM
  Tot(64)       15        5     2080   1755.9    304.3   1560.0   758.00     21.8   1755.9      0.0   1535.3      0.0    162.3       93     92.1     92.1      100     0.000     0.000     0.000     0.000      112        0        0        0        6        0        0    18.517       99     30.0    5.555     2.20       10        9     2080  1206_RCP85_net_15May_loam.PRM
  Tot(65)       15        5     2081   1921.8    270.9   1558.7   767.00      2.3   1921.8      0.0   1685.0      0.0    145.3       98     84.6     84.6      100     0.000     0.000     0.000     0.000      117        0        0        0        8        0        0    18.695       99     30.0    5.608     2.45       14        9     2081  1206_RCP85_net_15May_loam.PRM
  Tot(66)       15        5     2082   1703.7    274.1   1566.2   775.00      2.4   1703.7      0.0   1489.8      0.0    133.1       96     88.7     88.7      100     0.000     0.000     0.000     0.000      123        0        0        0       10        0        0    18.986       99     30.0    5.696     2.59       22        9     2082  1206_RCP85_net_15May_loam.PRM
  Tot(67)       15        5     2083   1391.9    337.9   1557.8   784.00     40.3   1391.9      0.0   1162.6      0.0    187.2       89     93.9     93.9      100     0.000     0.000     0.000     0.000      110        0        0        0        6        0       -0    18.275       99     30.0    5.483     1.96        7        9     2083  1206_RCP85_net_15May_loam.PRM
  Tot(68)       15        5     2084   1766.2    294.6   1563.7   792.00      4.8   1766.2      0.0   1512.0      0.0    174.6       96     86.9     86.9      100     0.000     0.000     0.000     0.000      113        0        0        0        7        0       -0    18.306       99     30.0    5.492     2.12       10        9     2084  1206_RCP85_net_15May_loam.PRM
  Tot(69)       15        5     2085   1767.2    288.0   1568.3   801.00     10.6   1767.2      0.0   1569.9      0.0    130.6       80     83.0     83.0      100     0.000     0.000     0.000     0.000      120        0        0        0       10        0        0    18.759       99     30.0    5.628     2.67       17        9     2085  1206_RCP85_net_15May_loam.PRM
  Tot(70)       15        5     2086   1202.6    279.0   1566.5   810.00     13.4   1202.6      0.0    980.5      0.0    153.8       92     78.9     78.9      100     0.000     0.000     0.000     0.000      112        0        0        0        6        0        0    18.327       99     30.0    5.498     2.38       10        9     2086  1206_RCP85_net_15May_loam.PRM
  Tot(71)       15        5     2087   1187.5    283.8   1568.2   818.00     29.0   1187.5      0.0    959.2      0.0    164.7       94     82.4     82.4      100     0.000     0.000     0.000     0.000      109        0        0        0        5        0        0    18.072       99     30.0    5.422     2.21        6        9     2087  1206_RCP85_net_15May_loam.PRM
  Tot(72)       15        5     2088   2082.8    291.7   1564.7   827.00     17.6   2082.8      0.0   1846.1      0.0    162.2       96     82.1     82.1      100     0.000     0.000     0.000     0.000      112        0        0        0        6        0        0    18.469       99     30.0    5.541     2.29       11        9     2088  1206_RCP85_net_15May_loam.PRM
  Tot(73)       15        5     2089   1526.9    257.1   1562.6   836.00      0.0   1526.9      0.0   1286.3      0.0    136.7       97     80.9     80.9      100     0.000     0.000     0.000     0.000      113        0        0        0        6        0        0    18.369       99     30.0    5.511     2.55       10        9     2089  1206_RCP85_net_15May_loam.PRM
  Tot(74)       15        5     2090   1461.9    281.8   1559.1   845.00     24.4   1461.9      0.0   1229.0      0.0    145.6       87     82.0     82.0      100     0.000     0.000     0.000     0.000      112        0        0        0        6        0        0    18.582       99     30.0    5.575     2.46        9        9     2090  1206_RCP85_net_15May_loam.PRM
  Tot(75)       15        5     2091   1483.7    300.1   1559.6   854.00     78.7   1483.7      0.0   1308.6      0.0    176.1       87     77.1     77.1      100     0.000     0.000     0.000     0.000      106        0        0        0        5        0        0    18.035       99     30.0    5.410     2.16        3        9     2091  1206_RCP85_net_15May_loam.PRM
  Tot(76)       15        5     2092   1811.2    307.4   1557.4   863.00     36.4   1811.2      0.0   1604.4      0.0    158.7       90     87.5     87.5      100     0.000     0.000     0.000     0.000      113        0        0        0        6        0        0    18.317       99     30.0    5.495     2.23        9        9     2092  1206_RCP85_net_15May_loam.PRM
  Tot(77)       15        5     2093   1452.6    264.0   1568.7   872.00      4.6   1452.6      0.0   1229.5      0.0    136.2       98     89.8     89.8      100     0.000     0.000     0.000     0.000      109        0        0        0        5        0        0    18.072       99     30.0    5.421     2.43        6        9     2093  1206_RCP85_net_15May_loam.PRM
  Tot(78)       15        5     2094   1426.8    252.3   1565.3   881.00      0.0   1426.8      0.0   1210.4      0.0    134.5       98     77.3     77.3      100     0.000     0.000     0.000     0.000      117        0        0        0        9        0        0    18.463       99     30.0    5.539     2.64       14        9     2094  1206_RCP85_net_15May_loam.PRM
  Tot(79)       15        5     2095   1743.4    255.8   1560.1   890.00     20.0   1743.4      0.0   1544.2      0.0    141.2       96     76.4     76.4      100     0.000     0.000     0.000     0.000      112        0        0        0        6        0       -0    18.362       99     30.0    5.509     2.56        9        9     2095  1206_RCP85_net_15May_loam.PRM
  Tot(80)       15        5     2096   1382.5    307.2   1565.4   899.00     29.6   1382.5      0.0   1177.3      0.0    157.1       84     84.5     84.5      100     0.000     0.000     0.000     0.000      110        0        0        0        5        0        0    18.100       99     30.0    5.430     2.27        8        9     2096  1206_RCP85_net_15May_loam.PRM
  Tot(81)       15        5     2097   1605.5    253.2   1565.0   908.00      1.1   1605.5      0.0   1396.5      0.0    129.8       97     79.4     79.4      100     0.000     0.000     0.000     0.000      113        0        0        0        6        0       -0    18.291       99     30.0    5.487     2.65       10        9     2097  1206_RCP85_net_15May_loam.PRM
  Tot(82)       15        5     2098   1506.4    250.4   1564.0   917.00     12.4   1506.4      0.0   1288.7      0.0    131.5       94     78.9     78.9      100     0.000     0.000     0.000     0.000      111        0        0        0        6        0        0    18.179       99     30.0    5.454     2.60        9        9     2098  1206_RCP85_net_15May_loam.PRM
  Tot(83)       15        5     2099   2115.5    266.4   1566.9   927.00      0.0   2115.5      0.0   1890.8      0.0    133.8       99     88.2     88.2      100     0.000     0.000     0.000     0.000      112        0        0        0        6        0        0    17.941       99     30.0    5.382     2.45        9        9     2099  1206_RCP85_net_15May_loam.PRM
