AquaCrop 6.0 (March 2017) - Output created on (date) : 07/06/2021   at (time) : 19:40:44

    RunNr     Day1   Month1    Year1     Rain      ETo       GD     CO2      Irri   Infilt   Runoff    Drain   Upflow        E     E/Ex       Tr      TrW   Tr/Trx    SaltIn   SaltOut    SaltUp  SaltProf     Cycle   SaltStr  FertStr  WeedStr  TempStr   ExpStr   StoStr  BioMass  Brelative   HI     Yield     WPet     DayN   MonthN    YearN
                                           mm       mm    °C.day    ppm        mm       mm       mm       mm       mm       mm        %       mm       mm        %    ton/ha    ton/ha    ton/ha    ton/ha      days       %        %        %        %        %        %    ton/ha        %       %    ton/ha    kg/m3
   Tot(1)       15        5     2017   1329.0    373.5   1559.3   404.00      0.0   1329.0      0.0   1064.4      0.0    159.8       67    100.5    100.5       99     0.000     0.000     0.000     0.000      129        0        0        0       15        3        1    17.508       95     30.0    5.252     2.03       28        9     2017  1206_RCP45_rainfed_15May_loam.PRM
   Tot(2)       15        5     2018   1613.5    386.6   1561.3   407.00      0.0   1613.5      0.0   1341.2      0.0    172.8       72     95.9     95.9      100     0.000     0.000     0.000     0.000      141        0        0        0       21        1        0    18.112       97     30.0    5.434     2.03        9       10     2018  1206_RCP45_rainfed_15May_loam.PRM
   Tot(3)       15        5     2019   1041.8    397.9   1558.6   409.00      0.0   1041.8      0.0    791.6      0.0    150.0       59    103.8    103.8      100     0.000     0.000     0.000     0.000      126        0        0        0       14        4        0    17.249       94     30.0    5.175     2.05       25        9     2019  1206_RCP45_rainfed_15May_loam.PRM
   Tot(4)       15        5     2020   1277.0    368.4   1564.9   411.00      0.0   1277.0      0.0   1006.5      0.0    167.7       74    102.9    102.9      100     0.000     0.000     0.000     0.000      135        0        0        0       17        1        0    18.126       98     30.0    5.438     2.03        2       10     2020  1206_RCP45_rainfed_15May_loam.PRM
   Tot(5)       15        5     2021   2127.9    341.1   1559.6   413.00      0.0   2127.9      0.0   1856.0      0.0    169.3       91     88.9     88.9      100     0.000     0.000     0.000     0.000      158        0        0        0       31        0        1    18.476       99     30.0    5.543     2.16       27       10     2021  1206_RCP45_rainfed_15May_loam.PRM
   Tot(6)       15        5     2022   1639.2    374.3   1562.1   416.00      0.0   1639.2      0.0   1352.6      0.0    189.2       87     90.7     90.7       99     0.000     0.000     0.000     0.000      147        0        0        0       24        0        1    18.291       98     30.0    5.487     1.97       15       10     2022  1206_RCP45_rainfed_15May_loam.PRM
   Tot(7)       15        5     2023   1633.0    345.3   1561.7   418.00      0.0   1633.0      0.0   1342.5      0.0    173.5       96    106.9    106.9       99     0.000     0.000     0.000     0.000      143        0        0        0       21        0        1    18.206       97     30.0    5.462     1.96       12       10     2023  1206_RCP45_rainfed_15May_loam.PRM
   Tot(8)       15        5     2024   1116.6    400.2   1562.0   420.00      0.0   1116.6      0.0    810.9      0.0    186.2       77    111.8    111.8      100     0.000     0.000     0.000     0.000      137        0        0        0       19        1        0    18.290       98     30.0    5.487     1.85        6       10     2024  1206_RCP45_rainfed_15May_loam.PRM
   Tot(9)       15        5     2025   1475.9    372.8   1561.8   423.00      0.0   1475.9      0.0   1243.8      0.0    150.8       62     93.4     93.4      100     0.000     0.000     0.000     0.000      129        0        0        0       14        3        0    17.742       95     30.0    5.323     2.20       26        9     2025  1206_RCP45_rainfed_15May_loam.PRM
  Tot(10)       15        5     2026   1805.8    362.5   1560.9   425.00      0.0   1805.8      0.0   1498.9      0.0    207.6       97     95.1     95.1      100     0.000     0.000     0.000     0.000      139        0        0        0       20        0        0    18.365       99     30.0    5.509     1.83        7       10     2026  1206_RCP45_rainfed_15May_loam.PRM
  Tot(11)       15        5     2027   1632.6    375.8   1562.4   428.00      0.0   1632.6      0.0   1405.8      0.0    143.4       56     89.1     89.1      100     0.000     0.000     0.000     0.000      128        0        0        0       15        3        0    17.610       95     30.0    5.283     2.29       26        9     2027  1206_RCP45_rainfed_15May_loam.PRM
  Tot(12)       15        5     2028   1434.8    371.2   1559.1   430.00      0.0   1434.8      0.0   1132.1      0.0    200.7       94    110.8    110.8       99     0.000     0.000     0.000     0.000      138        0        0        0       19        0        1    18.402       99     30.0    5.521     1.78        7       10     2028  1206_RCP45_rainfed_15May_loam.PRM
  Tot(13)       15        5     2029   1567.9    390.8   1564.4   433.00      0.0   1567.9      0.0   1259.6      0.0    174.5       76    122.1    122.1      100     0.000     0.000     0.000     0.000      130        0        0        0       16        1        0    17.984       98     30.0    5.395     1.82       28        9     2029  1206_RCP45_rainfed_15May_loam.PRM
  Tot(14)       15        5     2030   1519.6    358.0   1557.2   435.00      0.0   1519.6      0.0   1240.2      0.0    190.4       92     99.2     99.2      100     0.000     0.000     0.000     0.000      137        0        0        0       18        0        0    18.677       99     30.0    5.603     1.93        4       10     2030  1206_RCP45_rainfed_15May_loam.PRM
  Tot(15)       15        5     2031   1394.6    426.1   1563.2   438.00      0.0   1394.6      0.0   1135.3      0.0    155.1       55    108.5    108.5      100     0.000     0.000     0.000     0.000      128        0        0        0       15        4        0    17.190       94     30.0    5.157     1.98       26        9     2031  1206_RCP45_rainfed_15May_loam.PRM
  Tot(16)       15        5     2032   1521.5    416.1   1563.4   440.00      0.0   1521.5      0.0   1256.3      0.0    175.3       72    109.7    109.7       99     0.000     0.000     0.000     0.000      130        0        0        0       14        1        1    18.142       97     30.0    5.443     1.92       28        9     2032  1206_RCP45_rainfed_15May_loam.PRM
  Tot(17)       15        5     2033   1344.7    360.6   1561.6   443.00      0.0   1344.7      0.0   1049.0      0.0    180.4       87    112.1    112.1      100     0.000     0.000     0.000     0.000      129        0        0        0       13        1        0    18.412       99     30.0    5.524     1.90       27        9     2033  1206_RCP45_rainfed_15May_loam.PRM
  Tot(18)       15        5     2034   1162.0    393.8   1561.3   445.00      0.0   1162.0      0.0    861.2      0.0    194.5       96    113.5    113.5      100     0.000     0.000     0.000     0.000      147        0        0        0       24        0        0    18.663       99     30.0    5.599     1.83       15       10     2034  1206_RCP45_rainfed_15May_loam.PRM
  Tot(19)       15        5     2035   1555.5    351.1   1566.0   448.00      0.0   1555.5      0.0   1269.2      0.0    170.8       80    106.4    106.4      100     0.000     0.000     0.000     0.000      126        0        0        0       13        1        0    18.318       99     30.0    5.495     2.00       24        9     2035  1206_RCP45_rainfed_15May_loam.PRM
  Tot(20)       15        5     2036   1794.6    339.9   1561.1   450.00      0.0   1794.6      0.0   1514.0      0.0    169.3       94    105.8    105.8       99     0.000     0.000     0.000     0.000      137        0        0        0       18        0        1    18.653       98     30.0    5.596     2.04        5       10     2036  1206_RCP45_rainfed_15May_loam.PRM
  Tot(21)       15        5     2037   1212.8    383.4   1557.7   453.00      0.0   1212.8      0.0    943.6      0.0    171.1       76    103.8    103.8      100     0.000     0.000     0.000     0.000      139        0        0        0       20        1        0    18.534       98     30.0    5.560     2.03        7       10     2037  1206_RCP45_rainfed_15May_loam.PRM
  Tot(22)       15        5     2038   1860.0    355.2   1558.8   456.00      0.0   1860.0      0.0   1586.2      0.0    194.3       92     88.6     88.6       98     0.000     0.000     0.000     0.000      140        0        0        0       20        0        1    18.420       97     30.0    5.526     1.97        9       10     2038  1206_RCP45_rainfed_15May_loam.PRM
  Tot(23)       15        5     2039   1722.2    306.3   1561.5   458.00      0.0   1722.2      0.0   1478.3      0.0    162.3       96     85.1     85.1      100     0.000     0.000     0.000     0.000      139        0        0        0       20        0        0    18.775       99     30.0    5.633     2.30        9       10     2039  1206_RCP45_rainfed_15May_loam.PRM
  Tot(24)       15        5     2040   1519.1    375.6   1563.8   461.00      0.0   1519.1      0.0   1247.0      0.0    177.6       81    101.8    101.8       99     0.000     0.000     0.000     0.000      133        0        0        0       16        1        1    18.446       98     30.0    5.534     2.00        1       10     2040  1206_RCP45_rainfed_15May_loam.PRM
  Tot(25)       15        5     2041   1419.1    403.8   1564.7   463.00      0.0   1419.1      0.0   1175.0      0.0    153.5       58    100.4    100.4      100     0.000     0.000     0.000     0.000      123        0        0        0       12        4        0    17.506       94     30.0    5.252     2.09       21        9     2041  1206_RCP45_rainfed_15May_loam.PRM
  Tot(26)       15        5     2042   1069.0    412.1   1562.7   466.00      0.0   1069.0      0.0    855.9      0.0    115.4       41     98.7     98.7      100     0.000     0.000     0.000     0.000      124        0        0        0       12        6        0    17.066       91     30.0    5.120     2.41       22        9     2042  1206_RCP45_rainfed_15May_loam.PRM
  Tot(27)       15        5     2043   1588.7    337.5   1562.6   469.00      0.0   1588.7      0.0   1320.7      0.0    185.8       94     94.5     94.5      100     0.000     0.000     0.000     0.000      131        0        0        0       14        0        0    18.804       99     30.0    5.641     2.03       29        9     2043  1206_RCP45_rainfed_15May_loam.PRM
  Tot(28)       15        5     2044   1992.8    338.6   1564.6   471.00      0.0   1992.8      0.0   1738.6      0.0    172.1       92     95.4     95.4      100     0.000     0.000     0.000     0.000      133        0        0        0       16        0        1    18.807       99     30.0    5.642     2.12        1       10     2044  1206_RCP45_rainfed_15May_loam.PRM
  Tot(29)       15        5     2045   1533.7    358.0   1559.6   474.00      0.0   1533.7      0.0   1251.3      0.0    185.4       88     92.2     92.2      100     0.000     0.000     0.000     0.000      143        0        0        0       22        0        1    18.721       99     30.0    5.616     2.03       12       10     2045  1206_RCP45_rainfed_15May_loam.PRM
  Tot(30)       15        5     2046   1999.6    343.6   1562.6   476.00      0.0   1999.6      0.0   1765.2      0.0    160.1       81     85.8     85.8      100     0.000     0.000     0.000     0.000      144        0        0        0       23        0        0    18.744       99     30.0    5.623     2.30       12       10     2046  1206_RCP45_rainfed_15May_loam.PRM
  Tot(31)       15        5     2047   1184.7    317.8   1565.7   479.00      0.0   1184.7      0.0    925.6      0.0    156.0       88    101.2    101.2      100     0.000     0.000     0.000     0.000      132        0        0        0       15        0       -0    18.820       99     30.0    5.646     2.21       30        9     2047  1206_RCP45_rainfed_15May_loam.PRM
  Tot(32)       15        5     2048   1312.0    352.3   1563.0   481.00      0.0   1312.0      0.0   1042.7      0.0    164.1       85    101.0    101.0      100     0.000     0.000     0.000     0.000      139        0        0        0       20        0       -0    18.936       99     30.0    5.681     2.15        7       10     2048  1206_RCP45_rainfed_15May_loam.PRM
  Tot(33)       15        5     2049   1480.3    402.3   1563.5   484.00      0.0   1480.3      0.0   1253.2      0.0    141.7       52     91.8     91.8       99     0.000     0.000     0.000     0.000      122        0        0        0       11        5        1    17.011       91     30.0    5.103     2.21       19        9     2049  1206_RCP45_rainfed_15May_loam.PRM
  Tot(34)       15        5     2050   1744.0    313.8   1565.3   487.00      0.0   1744.0      0.0   1483.6      0.0    175.7       97     84.7     84.7      100     0.000     0.000     0.000     0.000      136        0        0        0       17        0        0    18.948       99     30.0    5.684     2.20        4       10     2050  1206_RCP45_rainfed_15May_loam.PRM
  Tot(35)       15        5     2051   1788.6    319.2   1559.3   489.00      0.0   1788.6      0.0   1515.3      0.0    160.8       85     94.8     94.8      100     0.000     0.000     0.000     0.000      126        0        0        0       13        0        0    18.651       99     30.0    5.595     2.21       24        9     2051  1206_RCP45_rainfed_15May_loam.PRM
  Tot(36)       15        5     2052   1817.6    380.6   1562.3   492.00      0.0   1817.6      0.0   1596.7      0.0    130.6       54     94.2     94.2       98     0.000     0.000     0.000     0.000      126        0        0        0       13        2        2    17.711       94     30.0    5.313     2.39       23        9     2052  1206_RCP45_rainfed_15May_loam.PRM
  Tot(37)       15        5     2053   1668.6    340.0   1562.9   494.00      0.0   1668.6      0.0   1381.0      0.0    176.1       96    103.8    103.8      100     0.000     0.000     0.000     0.000      131        0        0        0       14        0       -0    18.901       99     30.0    5.670     2.04       29        9     2053  1206_RCP45_rainfed_15May_loam.PRM
  Tot(38)       15        5     2054   1992.2    339.9   1563.7   496.00      0.0   1992.2      0.0   1765.7      0.0    145.9       70     85.7     85.7      100     0.000     0.000     0.000     0.000      130        0        0        0       15        2        1    18.202       95     30.0    5.461     2.38       28        9     2054  1206_RCP45_rainfed_15May_loam.PRM
  Tot(39)       15        5     2055   1359.7    352.3   1562.6   498.00      0.0   1359.7      0.0   1077.7      0.0    181.0       88    104.1    104.1       99     0.000     0.000     0.000     0.000      123        0        0        0       11        0        1    18.250       97     30.0    5.475     1.93       22        9     2055  1206_RCP45_rainfed_15May_loam.PRM
  Tot(40)       15        5     2056   1212.5    352.4   1565.1   501.00      0.0   1212.5      0.0    942.7      0.0    157.3       78    109.2    109.2      100     0.000     0.000     0.000     0.000      131        0        0        0       15        1        0    18.712       98     30.0    5.614     2.12        1       10     2056  1206_RCP45_rainfed_15May_loam.PRM
  Tot(41)       15        5     2057   1493.5    354.9   1563.0   503.00      0.0   1493.5      0.0   1235.3      0.0    158.0       81    104.1    104.1      100     0.000     0.000     0.000     0.000      139        0        0        0       21        0        1    18.776       99     30.0    5.633     2.16        6       10     2057  1206_RCP45_rainfed_15May_loam.PRM
  Tot(42)       15        5     2058   1576.6    302.5   1561.2   505.00      0.0   1576.6      0.0   1313.7      0.0    163.0       99     88.5     88.5      100     0.000     0.000     0.000     0.000      135        0        0        0       17        0        0    18.891       99     30.0    5.667     2.27        4       10     2058  1206_RCP45_rainfed_15May_loam.PRM
  Tot(43)       15        5     2059   1652.7    339.0   1560.5   507.00      0.0   1652.7      0.0   1386.0      0.0    179.9       92     88.7     88.7      100     0.000     0.000     0.000     0.000      144        0        0        0       23        0        0    18.881       99     30.0    5.664     2.12       12       10     2059  1206_RCP45_rainfed_15May_loam.PRM
  Tot(44)       15        5     2060   2090.8    313.4   1558.0   509.00      0.0   2090.8      0.0   1854.1      0.0    160.3       94     84.7     84.7       98     0.000     0.000     0.000     0.000      131        0        0        0       15        0        4    18.495       97     30.0    5.549     2.29       29        9     2060  1206_RCP45_rainfed_15May_loam.PRM
  Tot(45)       15        5     2061   1492.1    371.0   1564.6   511.00      0.0   1492.1      0.0   1269.7      0.0    142.6       63     93.2     93.2      100     0.000     0.000     0.000     0.000      131        0        0        0       16        2        0    18.307       96     30.0    5.492     2.35       29        9     2061  1206_RCP45_rainfed_15May_loam.PRM
  Tot(46)       15        5     2062   1634.8    341.5   1559.0   513.00      0.0   1634.8      0.0   1382.6      0.0    162.1       88     97.3     97.3      100     0.000     0.000     0.000     0.000      133        0        0        0       17        0        0    18.855       99     30.0    5.656     2.20        1       10     2062  1206_RCP45_rainfed_15May_loam.PRM
  Tot(47)       15        5     2063   1680.6    345.8   1564.4   514.00      0.0   1680.6      0.0   1425.6      0.0    165.5       84    101.1    101.1       99     0.000     0.000     0.000     0.000      125        0        0        0       12        0        1    18.368       98     30.0    5.510     2.08       23        9     2063  1206_RCP45_rainfed_15May_loam.PRM
  Tot(48)       15        5     2064   1746.5    329.5   1559.1   516.00      0.0   1746.5      0.0   1485.4      0.0    167.6       89     95.1     95.1       99     0.000     0.000     0.000     0.000      131        0        0        0       14        0        2    18.608       97     30.0    5.582     2.15       29        9     2064  1206_RCP45_rainfed_15May_loam.PRM
  Tot(49)       15        5     2065   1648.1    370.8   1565.8   518.00      0.0   1648.1      0.0   1432.8      0.0    134.5       52     84.5     84.5       99     0.000     0.000     0.000     0.000      122        0        0        0       11        4        1    17.420       93     30.0    5.226     2.40       20        9     2065  1206_RCP45_rainfed_15May_loam.PRM
  Tot(50)       15        5     2066   1621.2    320.4   1557.9   519.00      0.0   1621.2      0.0   1384.2      0.0    137.2       76     93.4     93.4       99     0.000     0.000     0.000     0.000      134        0        0        0       17        0        2    18.687       98     30.0    5.606     2.45        1       10     2066  1206_RCP45_rainfed_15May_loam.PRM
  Tot(51)       15        5     2067   2061.7    338.6   1565.6   520.00      0.0   2061.7      0.0   1818.0      0.0    156.8       77     86.3     86.3       99     0.000     0.000     0.000     0.000      134        0        0        0       16        1        1    18.461       97     30.0    5.538     2.30        2       10     2067  1206_RCP45_rainfed_15May_loam.PRM
  Tot(52)       15        5     2068   1222.6    359.1   1557.7   522.00      0.0   1222.6      0.0    945.5      0.0    162.8       84    113.6    113.6      100     0.000     0.000     0.000     0.000      132        0        0        0       16        0        0    18.926       99     30.0    5.678     2.07       30        9     2068  1206_RCP45_rainfed_15May_loam.PRM
  Tot(53)       15        5     2069   1589.4    339.4   1560.1   523.00      0.0   1589.4      0.0   1343.7      0.0    150.7       81     99.5     99.5      100     0.000     0.000     0.000     0.000      135        0        0        0       18        1        0    18.753       98     30.0    5.626     2.27        4       10     2069  1206_RCP45_rainfed_15May_loam.PRM
  Tot(54)       15        5     2070   1971.5    334.0   1558.9   524.00      0.0   1971.5      0.0   1689.9      0.0    172.3       96    108.2    108.2      100     0.000     0.000     0.000     0.000      128        0        0        0       13        0        1    18.713       99     30.0    5.614     2.01       26        9     2070  1206_RCP45_rainfed_15May_loam.PRM
  Tot(55)       15        5     2071   1318.6    323.6   1561.5   525.00      0.0   1318.6      0.0   1043.0      0.0    176.2       98     95.6     95.6      100     0.000     0.000     0.000     0.000      129        0        0        0       14        0        1    18.798       99     30.0    5.639     2.09       27        9     2071  1206_RCP45_rainfed_15May_loam.PRM
  Tot(56)       15        5     2072   1641.9    318.7   1563.3   527.00      0.0   1641.9      0.0   1367.8      0.0    174.2       98     95.6     95.6      100     0.000     0.000     0.000     0.000      128        0        0        0       14        0       -0    18.663       99     30.0    5.599     2.09       26        9     2072  1206_RCP45_rainfed_15May_loam.PRM
  Tot(57)       15        5     2073   1613.9    312.2   1561.9   527.00      0.0   1613.9      0.0   1367.5      0.0    144.1       78     94.8     94.8       99     0.000     0.000     0.000     0.000      122        0        0        0       11        1        2    18.156       97     30.0    5.447     2.29       19        9     2073  1206_RCP45_rainfed_15May_loam.PRM
  Tot(58)       15        5     2074   1601.8    309.9   1560.6   528.00      0.0   1601.8      0.0   1364.4      0.0    151.6       95     92.4     92.4      100     0.000     0.000     0.000     0.000      141        0        0        0       20        0        0    18.990       99     30.0    5.697     2.35        9       10     2074  1206_RCP45_rainfed_15May_loam.PRM
  Tot(59)       15        5     2075   1419.6    349.5   1561.0   529.00      0.0   1419.6      0.0   1133.8      0.0    176.5       96    110.4    110.4       99     0.000     0.000     0.000     0.000      126        0        0        0       13        0        1    18.498       98     30.0    5.549     1.95       24        9     2075  1206_RCP45_rainfed_15May_loam.PRM
  Tot(60)       15        5     2076   1388.2    311.3   1562.4   530.00      0.0   1388.2      0.0   1128.2      0.0    158.5       98     95.7     95.7      100     0.000     0.000     0.000     0.000      134        0        0        0       16        0        0    19.035       99     30.0    5.711     2.27        2       10     2076  1206_RCP45_rainfed_15May_loam.PRM
  Tot(61)       15        5     2077   2000.8    342.0   1563.1   530.00      0.0   2000.8      0.0   1755.4      0.0    157.1       93     99.7     99.7       99     0.000     0.000     0.000     0.000      137        0        0        0       19        0        2    18.695       98     30.0    5.608     2.20        5       10     2077  1206_RCP45_rainfed_15May_loam.PRM
  Tot(62)       15        5     2078   1845.1    321.4   1557.5   531.00      0.0   1845.1      0.0   1611.1      0.0    146.2       80     94.0     94.0       99     0.000     0.000     0.000     0.000      127        0        0        0       13        1        1    18.511       97     30.0    5.553     2.33       24        9     2078  1206_RCP45_rainfed_15May_loam.PRM
  Tot(63)       15        5     2079   1527.3    330.8   1566.4   531.00      0.0   1527.3      0.0   1313.9      0.0    136.4       64     83.0     83.0      100     0.000     0.000     0.000     0.000      125        0        0        0       12        2        0    18.145       95     30.0    5.443     2.50       22        9     2079  1206_RCP45_rainfed_15May_loam.PRM
  Tot(64)       15        5     2080   1717.0    357.9   1562.5   531.00      0.0   1717.0      0.0   1492.9      0.0    134.5       65     99.6     99.6      100     0.000     0.000     0.000     0.000      125        0        0        0       12        2        0    18.437       97     30.0    5.531     2.37       22        9     2080  1206_RCP45_rainfed_15May_loam.PRM
  Tot(65)       15        5     2081   1821.0    310.0   1559.9   531.00      0.0   1821.0      0.0   1579.4      0.0    151.7       88     92.6     92.6       99     0.000     0.000     0.000     0.000      131        0        0        0       15        0        2    18.790       98     30.0    5.637     2.33       28        9     2081  1206_RCP45_rainfed_15May_loam.PRM
  Tot(66)       15        5     2082   1683.5    365.6   1560.6   531.00      0.0   1683.5      0.0   1456.3      0.0    125.2       56    101.0    101.0       99     0.000     0.000     0.000     0.000      128        0        0        0       13        3        2    17.962       94     30.0    5.389     2.40       26        9     2082  1206_RCP45_rainfed_15May_loam.PRM
  Tot(67)       15        5     2083   1037.6    379.3   1559.6   532.00      0.0   1037.6      0.0    803.8      0.0    135.6       59    108.2    108.2      100     0.000     0.000     0.000     0.000      118        0        0        0        9        2        0    17.918       95     30.0    5.375     2.21       15        9     2083  1206_RCP45_rainfed_15May_loam.PRM
  Tot(68)       15        5     2084   1554.3    327.7   1565.6   532.00      0.0   1554.3      0.0   1314.6      0.0    140.6       77    104.8    104.8       99     0.000     0.000     0.000     0.000      127        0        0        0       12        0        2    18.554       98     30.0    5.566     2.28       24        9     2084  1206_RCP45_rainfed_15May_loam.PRM
  Tot(69)       15        5     2085   1784.9    329.4   1557.8   532.00      0.0   1784.9      0.0   1524.9      0.0    161.1       85     97.9     97.9       99     0.000     0.000     0.000     0.000      125        0        0        0       13        1        1    18.497       98     30.0    5.549     2.17       22        9     2085  1206_RCP45_rainfed_15May_loam.PRM
  Tot(70)       15        5     2086   1455.7    343.3   1557.7   532.00      0.0   1455.7      0.0   1221.4      0.0    141.4       74     95.6     95.6      100     0.000     0.000     0.000     0.000      133        0        0        0       18        1        0    18.665       98     30.0    5.600     2.39       30        9     2086  1206_RCP45_rainfed_15May_loam.PRM
  Tot(71)       15        5     2087   1685.7    325.4   1563.0   533.00      0.0   1685.7      0.0   1420.4      0.0    173.4       97     93.9     93.9      100     0.000     0.000     0.000     0.000      130        0        0        0       15        0        0    18.791       99     30.0    5.637     2.12       27        9     2087  1206_RCP45_rainfed_15May_loam.PRM
  Tot(72)       15        5     2088   1360.8    326.2   1560.6   533.00      0.0   1360.8      0.0   1129.3      0.0    134.0       78     99.0     99.0      100     0.000     0.000     0.000     0.000      142        0        0        0       23        1        0    18.755       98     30.0    5.627     2.44        9       10     2088  1206_RCP45_rainfed_15May_loam.PRM
  Tot(73)       15        5     2089   1522.4    361.2   1561.3   533.00      0.0   1522.4      0.0   1243.4      0.0    142.1       70    106.3    106.3      100     0.000     0.000     0.000     0.000      125        0        0        0       13        1        0    18.574       98     30.0    5.572     2.25       22        9     2089  1206_RCP45_rainfed_15May_loam.PRM
  Tot(74)       15        5     2090   1898.5    325.5   1557.4   534.00      0.0   1898.5      0.0   1662.0      0.0    150.0       97     96.6     96.6       99     0.000     0.000     0.000     0.000      145        0        0        0       25        0        3    18.667       98     30.0    5.600     2.27       14       10     2090  1206_RCP45_rainfed_15May_loam.PRM
  Tot(75)       15        5     2091   1914.3    308.6   1563.4   534.00      0.0   1914.3      0.0   1674.3      0.0    156.0       88     90.3     90.3       98     0.000     0.000     0.000     0.000      125        0        0        0       12        0        2    18.205       97     30.0    5.462     2.23       22        9     2091  1206_RCP45_rainfed_15May_loam.PRM
  Tot(76)       15        5     2092   1813.4    316.2   1561.8   535.00      0.0   1813.4      0.0   1576.1      0.0    144.1       96    103.8    103.8      100     0.000     0.000     0.000     0.000      139        0        0        0       20        0        0    18.952       99     30.0    5.686     2.32        7       10     2092  1206_RCP45_rainfed_15May_loam.PRM
  Tot(77)       15        5     2093   1423.2    312.0   1565.1   535.00      0.0   1423.2      0.0   1182.7      0.0    153.6       83     87.8     87.8      100     0.000     0.000     0.000     0.000      125        0        0        0       12        0        0    18.670       99     30.0    5.601     2.34       23        9     2093  1206_RCP45_rainfed_15May_loam.PRM
  Tot(78)       15        5     2094   1400.0    327.8   1557.2   535.00      0.0   1400.0      0.0   1165.4      0.0    149.2       80     88.3     88.3      100     0.000     0.000     0.000     0.000      134        0        0        0       18        0        0    18.844       99     30.0    5.653     2.38       30        9     2094  1206_RCP45_rainfed_15May_loam.PRM
  Tot(79)       15        5     2095   1424.1    352.1   1558.9   536.00      0.0   1424.1      0.0   1162.9      0.0    162.8       80    103.2    103.2      100     0.000     0.000     0.000     0.000      128        0        0        0       15        0        0    18.793       99     30.0    5.638     2.14       25        9     2095  1206_RCP45_rainfed_15May_loam.PRM
  Tot(80)       15        5     2096   1179.6    337.5   1565.5   536.00      0.0   1179.6      0.0    949.5      0.0    149.2       78     90.1     90.1      100     0.000     0.000     0.000     0.000      128        0        0        0       15        0        0    18.630       99     30.0    5.589     2.34       25        9     2096  1206_RCP45_rainfed_15May_loam.PRM
  Tot(81)       15        5     2097   1397.4    343.1   1565.7   537.00      0.0   1397.4      0.0   1162.0      0.0    142.4       71     96.2     96.2      100     0.000     0.000     0.000     0.000      126        0        0        0       13        2        0    18.313       97     30.0    5.494     2.32       23        9     2097  1206_RCP45_rainfed_15May_loam.PRM
  Tot(82)       15        5     2098   1923.7    331.0   1559.9   537.00      0.0   1923.7      0.0   1671.0      0.0    160.0       85     87.4     87.4       98     0.000     0.000     0.000     0.000      130        0        0        0       16        0        2    18.428       97     30.0    5.528     2.24       28        9     2098  1206_RCP45_rainfed_15May_loam.PRM
  Tot(83)       15        5     2099   1127.1    361.3   1557.3   538.00      0.0   1127.1      0.0    865.6      0.0    156.6       85    108.4    108.4      100     0.000     0.000     0.000     0.000      135        0        0        0       19        0        0    18.935       99     30.0    5.681     2.14        2       10     2099  1206_RCP45_rainfed_15May_loam.PRM
