AquaCrop 6.0 (March 2017) - Output created on (date) : 07/06/2021   at (time) : 20:04:33

    RunNr     Day1   Month1    Year1     Rain      ETo       GD     CO2      Irri   Infilt   Runoff    Drain   Upflow        E     E/Ex       Tr      TrW   Tr/Trx    SaltIn   SaltOut    SaltUp  SaltProf     Cycle   SaltStr  FertStr  WeedStr  TempStr   ExpStr   StoStr  BioMass  Brelative   HI     Yield     WPet     DayN   MonthN    YearN
                                           mm       mm    °C.day    ppm        mm       mm       mm       mm       mm       mm        %       mm       mm        %    ton/ha    ton/ha    ton/ha    ton/ha      days       %        %        %        %        %        %    ton/ha        %       %    ton/ha    kg/m3
   Tot(1)       15        4     2017    425.0    576.7   1561.7   404.00      0.0    425.0      0.0    254.3      0.0     66.7       13     66.9     66.9       81     0.000     0.000     0.000     0.000       62        0        0        0        0       51       17     3.144       25     14.2    0.447     0.41        6        7     2017  1212_RCP45_rainfed_15April_sandyloam.PRM
   Tot(2)       15        4     2018    526.0    501.0   1573.3   407.00      0.0    526.0      0.0    265.3      0.0    103.9       31    152.8    152.8       91     0.000     0.000     0.000     0.000       83        0        0        0        0       31        4     8.787       66     30.1    2.647     1.04       11        7     2018  1212_RCP45_rainfed_15April_sandyloam.PRM
   Tot(3)       15        4     2019     34.4    634.5   1567.8   409.00      0.0     34.4      0.0      0.0      0.0     49.5        9     66.1     66.1       81     0.000     0.000     0.000     0.000       61        0        0        0        0       52       16     2.917       24      8.9    0.260     0.24        3        7     2019  1212_RCP45_rainfed_15April_sandyloam.PRM
   Tot(4)       15        4     2020    307.2    548.6   1569.8   411.00      0.0    307.2      0.0     83.0      0.0    140.8       28     76.8     76.8       97     0.000     0.000     0.000     0.000       81        0        0        0        0       51        1     4.170       31     30.4    1.269     0.59        9        7     2020  1212_RCP45_rainfed_15April_sandyloam.PRM
   Tot(5)       15        4     2021    961.7    345.9   1570.9   413.00      0.0    961.7      0.0    701.5      0.0    108.3       49    126.5    126.5       96     0.000     0.000     0.000     0.000       91        0        0        0        1       15        1    13.598       91     30.0    4.079     1.74       20        7     2021  1212_RCP45_rainfed_15April_sandyloam.PRM
   Tot(6)       15        4     2022    911.0    448.3   1566.1   416.00      0.0    911.0      0.0    623.7      0.0    112.1       40    160.8    160.8       88     0.000     0.000     0.000     0.000       86        0        0        0        1       25        5    10.892       79     30.4    3.308     1.22       14        7     2022  1212_RCP45_rainfed_15April_sandyloam.PRM
   Tot(7)       15        4     2023    729.9    418.1   1565.7   418.00      0.0    729.9      0.0    414.8      0.0    104.8       33    113.0    113.0       98     0.000     0.000     0.000     0.000       86        0        0        0        1       33        1     9.988       69     30.0    2.997     1.38       14        7     2023  1212_RCP45_rainfed_15April_sandyloam.PRM
   Tot(8)       15        4     2024    229.6    526.2   1563.3   420.00      0.0    229.6      0.0     49.2      0.0     87.5       20     84.3     84.3       79     0.000     0.000     0.000     0.000       81        0        0        0        0       50       15     4.189       32     30.4    1.272     0.75        9        7     2024  1212_RCP45_rainfed_15April_sandyloam.PRM
   Tot(9)       15        4     2025    128.8    622.8   1574.8   423.00      0.0    128.8      0.0      0.0      0.0    106.6       18     62.4     62.4       95     0.000     0.000     0.000     0.000       80        0        0        0        0       58        3     2.806       22     30.9    0.867     0.52        8        7     2025  1212_RCP45_rainfed_15April_sandyloam.PRM
  Tot(10)       15        4     2026    363.5    529.4   1567.3   425.00      0.0    363.5      0.0     77.2      0.0    103.5       30    158.1    158.1       85     0.000     0.000     0.000     0.000       80        0        0        0        0       23        9     8.988       68     30.2    2.712     1.05        8        7     2026  1212_RCP45_rainfed_15April_sandyloam.PRM
  Tot(11)       15        4     2027    175.5    593.7   1561.6   428.00      0.0    175.5      0.0      0.0      0.0     98.6       20     74.0     74.0       77     0.000     0.000     0.000     0.000       57        0        0        0        0       50       20     3.247       26     12.1    0.392     0.32        3        7     2027  1212_RCP45_rainfed_15April_sandyloam.PRM
  Tot(12)       15        4     2028    657.7    447.0   1564.4   430.00      0.0    657.7      0.0    302.8      0.0    103.7       37    147.4    147.4       86     0.000     0.000     0.000     0.000       84        0        0        0        0       23        7    10.297       75     30.4    3.127     1.25       13        7     2028  1212_RCP45_rainfed_15April_sandyloam.PRM
  Tot(13)       15        4     2029     40.9    619.1   1569.9   433.00      0.0     40.9      0.0      0.0      0.0     66.1       12     74.8     74.8       81     0.000     0.000     0.000     0.000       66        0        0        0        0       51       17     3.599       29     21.2    0.764     0.59        4        7     2029  1212_RCP45_rainfed_15April_sandyloam.PRM
  Tot(14)       15        4     2030    994.4    445.2   1568.9   435.00      0.0    994.4      0.0    661.9      0.0    107.8       36    141.6    141.6       93     0.000     0.000     0.000     0.000       85        0        0        0        0       33        3     9.799       71     30.8    3.020     1.22       13        7     2030  1212_RCP45_rainfed_15April_sandyloam.PRM
  Tot(15)       15        4     2031    255.0    605.6   1570.6   438.00      0.0    255.0      0.0     15.9      0.0    128.9       27     80.2     80.2       76     0.000     0.000     0.000     0.000       60        0        0        0        0       46       20     3.678       30     11.7    0.430     0.29        6        7     2031  1212_RCP45_rainfed_15April_sandyloam.PRM
  Tot(16)       15        4     2032    204.0    559.6   1563.5   440.00      0.0    204.0      0.0      0.0      0.0    111.0       24     69.9     69.9       79     0.000     0.000     0.000     0.000       64        0        0        0        0       50       18     3.444       27     17.2    0.594     0.44        5        7     2032  1212_RCP45_rainfed_15April_sandyloam.PRM
  Tot(17)       15        4     2033    411.2    487.7   1558.8   443.00      0.0    411.2      0.0    158.8      0.0    100.3       30    144.8    144.8       88     0.000     0.000     0.000     0.000       81        0        0        0        0       32        5     9.511       71     30.2    2.871     1.17        9        7     2033  1212_RCP45_rainfed_15April_sandyloam.PRM
  Tot(18)       15        4     2034    722.4    392.5   1569.3   445.00      0.0    722.4      0.0    442.4      0.0     88.2       32    125.3    125.3       97     0.000     0.000     0.000     0.000       88        0        0        0        1       24        1    11.521       79     30.0    3.456     1.62       16        7     2034  1212_RCP45_rainfed_15April_sandyloam.PRM
  Tot(19)       15        4     2035    140.8    550.2   1567.9   448.00      0.0    140.8      0.0      0.0      0.0    105.3       29    125.0    125.0       74     0.000     0.000     0.000     0.000       77        0        0        0        0       37       16     6.846       53     29.7    2.033     0.89        5        7     2035  1212_RCP45_rainfed_15April_sandyloam.PRM
  Tot(20)       15        4     2036    700.6    421.7   1557.3   450.00      0.0    700.6      0.0    455.0      0.0    124.9       45    125.4    125.4       86     0.000     0.000     0.000     0.000       84        0        0        0        0       29        6     9.414       68     30.7    2.888     1.15       11        7     2036  1212_RCP45_rainfed_15April_sandyloam.PRM
  Tot(21)       15        4     2037    394.4    487.0   1566.6   453.00      0.0    394.4      0.0    202.6      0.0    102.3       24     82.4     82.4       94     0.000     0.000     0.000     0.000       82        0        0        0        0       49        3     4.847       36     30.4    1.473     0.80       10        7     2037  1212_RCP45_rainfed_15April_sandyloam.PRM
  Tot(22)       15        4     2038    973.7    480.6   1567.5   456.00      0.0    973.7      0.0    729.9      0.0    102.1       33    137.9    137.9       80     0.000     0.000     0.000     0.000       84        0        0        0        0       25        9     8.662       64     30.1    2.605     1.09       12        7     2038  1212_RCP45_rainfed_15April_sandyloam.PRM
  Tot(23)       15        4     2039    428.8    400.3   1561.8   458.00      0.0    428.8      0.0    149.4      0.0     96.4       37    144.5    144.5       99     0.000     0.000     0.000     0.000       83        0        0        0        0       18        0    12.136       87     30.3    3.672     1.53       11        7     2039  1212_RCP45_rainfed_15April_sandyloam.PRM
  Tot(24)       15        4     2040    549.4    467.2   1572.0   461.00      0.0    549.4      0.0    274.5      0.0     97.3       28     85.5     85.5       78     0.000     0.000     0.000     0.000       80        0        0        0        0       43       12     4.525       35     30.5    1.378     0.76        8        7     2040  1212_RCP45_rainfed_15April_sandyloam.PRM
  Tot(25)       15        4     2041    101.4    621.4   1561.1   463.00      0.0    101.4      0.0      0.0      0.0     72.3       14     71.1     71.1       79     0.000     0.000     0.000     0.000       76        0        0        0        0       51       16     3.368       27     14.6    0.492     0.34        4        7     2041  1212_RCP45_rainfed_15April_sandyloam.PRM
  Tot(26)       15        4     2042    122.6    541.4   1562.6   466.00      0.0    122.6      0.0      0.0      0.0     78.0       17     63.3     63.3       81     0.000     0.000     0.000     0.000       61        0        0        0        0       52       17     2.905       23     14.3    0.415     0.36        4        7     2042  1212_RCP45_rainfed_15April_sandyloam.PRM
  Tot(27)       15        4     2043    360.8    536.6   1572.0   469.00      0.0    360.8      0.0    133.8      0.0    110.7       25    105.7    105.7       98     0.000     0.000     0.000     0.000       80        0        0        0        0       45        1     6.504       48     30.5    1.983     0.93        8        7     2043  1212_RCP45_rainfed_15April_sandyloam.PRM
  Tot(28)       15        4     2044    681.0    439.0   1561.1   471.00      0.0    681.0      0.0    456.9      0.0    125.4       33     75.6     75.6       96     0.000     0.000     0.000     0.000       80        0        0        0        0       46        2     5.335       39     30.2    1.614     0.81        8        7     2044  1212_RCP45_rainfed_15April_sandyloam.PRM
  Tot(29)       15        4     2045    745.4    399.4   1559.3   474.00      0.0    745.4      0.0    430.6      0.0    128.5       54    135.4    135.4       86     0.000     0.000     0.000     0.000       84        0        0        0        0       33        6    10.116       73     30.6    3.099     1.18       13        7     2045  1212_RCP45_rainfed_15April_sandyloam.PRM
  Tot(30)       15        4     2046    826.6    406.9   1561.1   476.00      0.0    826.6      0.0    608.1      0.0    112.4       36     97.4     97.4       90     0.000     0.000     0.000     0.000       86        0        0        0        1       36        4     9.118       64     30.2    2.756     1.32       14        7     2046  1212_RCP45_rainfed_15April_sandyloam.PRM
  Tot(31)       15        4     2047    613.1    394.5   1559.8   479.00      0.0    613.1      0.0    393.2      0.0    115.9       40    106.7    106.7       96     0.000     0.000     0.000     0.000       85        0        0        0        1       31        1    10.607       73     30.0    3.182     1.44       13        7     2047  1212_RCP45_rainfed_15April_sandyloam.PRM
  Tot(32)       15        4     2048    344.7    462.2   1566.8   481.00      0.0    344.7      0.0    131.5      0.0    101.9       28     91.1     91.1       86     0.000     0.000     0.000     0.000       82        0        0        0        0       45        5     6.857       49     30.8    2.113     1.10       10        7     2048  1212_RCP45_rainfed_15April_sandyloam.PRM
  Tot(33)       15        4     2049    324.5    558.7   1568.4   484.00      0.0    324.5      0.0    167.8      0.0     80.1       17     67.8     67.8       77     0.000     0.000     0.000     0.000       61        0        0        0        0       49       19     3.234       26     16.2    0.525     0.44        5        7     2049  1212_RCP45_rainfed_15April_sandyloam.PRM
  Tot(34)       15        4     2050    730.5    387.2   1557.6   487.00      0.0    730.5      0.0    446.3      0.0    122.6       53    145.9    145.9       92     0.000     0.000     0.000     0.000       84        0        0        0        0       28        3    11.304       80     30.5    3.442     1.29       13        7     2050  1212_RCP45_rainfed_15April_sandyloam.PRM
  Tot(35)       15        4     2051    463.8    524.6   1558.1   489.00      0.0    463.8      0.0    229.0      0.0     95.6       24    110.9    110.9       84     0.000     0.000     0.000     0.000       78        0        0        0        0       42        8     6.150       48     30.5    1.879     0.91        6        7     2051  1212_RCP45_rainfed_15April_sandyloam.PRM
  Tot(36)       15        4     2052    481.3    513.9   1559.9   492.00      0.0    481.3      0.0    292.4      0.0     80.3       18     65.7     65.7       85     0.000     0.000     0.000     0.000       78        0        0        0        0       55        8     3.081       24     28.2    0.870     0.60        6        7     2052  1212_RCP45_rainfed_15April_sandyloam.PRM
  Tot(37)       15        4     2053    623.8    457.5   1560.1   494.00      0.0    623.8      0.0    380.8      0.0     88.3       27    134.0    134.0      100     0.000     0.000     0.000     0.000       82        0        0        0        0       21        0    10.683       77     30.0    3.205     1.45       10        7     2053  1212_RCP45_rainfed_15April_sandyloam.PRM
  Tot(38)       15        4     2054    736.6    482.6   1559.7   496.00      0.0    736.6      0.0    493.5      0.0    113.3       29     74.8     74.8       82     0.000     0.000     0.000     0.000       79        0        0        0        0       50        8     3.912       30     30.7    1.203     0.64        7        7     2054  1212_RCP45_rainfed_15April_sandyloam.PRM
  Tot(39)       15        4     2055    372.6    505.4   1564.2   498.00      0.0    372.6      0.0     21.6      0.0    104.8       34    173.9    173.9       97     0.000     0.000     0.000     0.000       80        0        0        0        0       26        2    11.225       82     30.7    3.443     1.24        8        7     2055  1212_RCP45_rainfed_15April_sandyloam.PRM
  Tot(40)       15        4     2056    789.3    465.9   1565.8   501.00      0.0    789.3      0.0    537.7      0.0     84.1       27    152.0    152.0       95     0.000     0.000     0.000     0.000       81        0        0        0        0       28        2    10.286       76     30.7    3.162     1.34        9        7     2056  1212_RCP45_rainfed_15April_sandyloam.PRM
  Tot(41)       15        4     2057    747.8    470.0   1559.5   503.00      0.0    747.8      0.0    549.0      0.0     82.5       22     95.4     95.4       86     0.000     0.000     0.000     0.000       81        0        0        0        0       45        7     5.981       45     30.6    1.831     1.03        9        7     2057  1212_RCP45_rainfed_15April_sandyloam.PRM
  Tot(42)       15        4     2058    707.3    412.6   1557.7   505.00      0.0    707.3      0.0    468.6      0.0    106.1       36    122.4    122.4      100     0.000     0.000     0.000     0.000       85        0        0        0        1       21        0    11.826       81     30.0    3.550     1.56       13        7     2058  1212_RCP45_rainfed_15April_sandyloam.PRM
  Tot(43)       15        4     2059   1358.4    373.0   1565.6   507.00      0.0   1358.4      0.0   1050.8      0.0    109.8       48    154.3    154.3      100     0.000     0.000     0.000     0.000       88        0        0        0        1        6        1    13.626       95     30.1    4.095     1.55       16        7     2059  1212_RCP45_rainfed_15April_sandyloam.PRM
  Tot(44)       15        4     2060   1026.3    438.9   1562.1   509.00      0.0   1026.3      0.0    819.7      0.0     86.1       26     99.4     99.4       85     0.000     0.000     0.000     0.000       80        0        0        0        0       40        5     7.398       55     22.9    1.694     0.92        8        7     2060  1212_RCP45_rainfed_15April_sandyloam.PRM
  Tot(45)       15        4     2061    433.6    488.2   1559.8   511.00      0.0    433.6      0.0    258.5      0.0     89.5       24     84.7     84.7       80     0.000     0.000     0.000     0.000       79        0        0        0        0       45       11     4.227       33     27.1    1.147     0.67        7        7     2061  1212_RCP45_rainfed_15April_sandyloam.PRM
  Tot(46)       15        4     2062    616.4    470.7   1570.2   513.00      0.0    616.4      0.0    407.6      0.0     89.1       23    104.2    104.2       95     0.000     0.000     0.000     0.000       81        0        0        0        0       40        2     7.506       56     30.4    2.281     1.19        9        7     2062  1212_RCP45_rainfed_15April_sandyloam.PRM
  Tot(47)       15        4     2063    618.0    467.0   1569.9   514.00      0.0    618.0      0.0    424.0      0.0     88.9       22     82.5     82.5       90     0.000     0.000     0.000     0.000       81        0        0        0        0       45        3     6.454       47     30.2    1.951     1.14        9        7     2063  1212_RCP45_rainfed_15April_sandyloam.PRM
  Tot(48)       15        4     2064   1012.5    448.3   1565.8   516.00      0.0   1012.5      0.0    753.8      0.0    106.6       35    147.6    147.6       94     0.000     0.000     0.000     0.000       83        0        0        0        0       23        2    10.570       77     30.4    3.210     1.26       11        7     2064  1212_RCP45_rainfed_15April_sandyloam.PRM
  Tot(49)       15        4     2065    339.7    562.2   1571.5   518.00      0.0    339.7      0.0    134.5      0.0     82.4       21     97.3     97.3       74     0.000     0.000     0.000     0.000       59        0        0        0        0       40       22     4.652       37      3.7    0.171     0.11        4        7     2065  1212_RCP45_rainfed_15April_sandyloam.PRM
  Tot(50)       15        4     2066    891.3    395.9   1568.7   519.00      0.0    891.3      0.0    613.5      0.0    132.7       44     90.9     90.9       88     0.000     0.000     0.000     0.000       84        0        0        0        1       38        6     7.459       53     30.1    2.244     1.01       12        7     2066  1212_RCP45_rainfed_15April_sandyloam.PRM
  Tot(51)       15        4     2067   1157.1    457.4   1557.3   520.00      0.0   1157.1      0.0    914.7      0.0     96.6       34    136.1    136.1       81     0.000     0.000     0.000     0.000       82        0        0        0        0       27        8     8.788       65     30.6    2.688     1.16        9        7     2067  1212_RCP45_rainfed_15April_sandyloam.PRM
  Tot(52)       15        4     2068    450.0    478.5   1562.1   522.00      0.0    450.0      0.0    192.7      0.0     73.9       21    134.5    134.5       97     0.000     0.000     0.000     0.000       80        0        0        0        0       32        1     9.131       69     30.7    2.801     1.35        8        7     2068  1212_RCP45_rainfed_15April_sandyloam.PRM
  Tot(53)       15        4     2069    936.0    390.0   1558.2   523.00      0.0    936.0      0.0    715.9      0.0     78.1       29    136.1    136.1      100     0.000     0.000     0.000     0.000       84        0        0        0        0       19        0    12.196       85     30.5    3.724     1.74       13        7     2069  1212_RCP45_rainfed_15April_sandyloam.PRM
  Tot(54)       15        4     2070   1195.9    386.0   1571.6   524.00      0.0   1195.9      0.0    897.6      0.0    139.1       50     95.5     95.5       87     0.000     0.000     0.000     0.000       84        0        0        0        0       44        6     7.304       54     30.9    2.255     0.96       12        7     2070  1212_RCP45_rainfed_15April_sandyloam.PRM
  Tot(55)       15        4     2071    528.2    451.6   1559.3   525.00      0.0    528.2      0.0    279.2      0.0     89.8       29    156.1    156.1      100     0.000     0.000     0.000     0.000       81        0        0        0        0       15        0    11.912       86     30.1    3.588     1.46        9        7     2071  1212_RCP45_rainfed_15April_sandyloam.PRM
  Tot(56)       15        4     2072    578.2    421.3   1569.9   527.00      0.0    578.2      0.0    327.8      0.0    111.4       39    137.2    137.2       97     0.000     0.000     0.000     0.000       82        0        0        0        0       22        1    11.391       82     30.0    3.421     1.38       10        7     2072  1212_RCP45_rainfed_15April_sandyloam.PRM
  Tot(57)       15        4     2073    750.7    481.1   1559.4   527.00      0.0    750.7      0.0    558.2      0.0     86.9       22    104.3    104.3       96     0.000     0.000     0.000     0.000       79        0        0        0        0       38        2     7.135       54     30.0    2.141     1.13        7        7     2073  1212_RCP45_rainfed_15April_sandyloam.PRM
  Tot(58)       15        4     2074   1281.1    307.8   1569.4   528.00      0.0   1281.1      0.0   1045.7      0.0    119.6       57    104.4    104.4      100     0.000     0.000     0.000     0.000       89        0        0        0        0        3        0    14.616       96     30.0    4.385     1.96       17        7     2074  1212_RCP45_rainfed_15April_sandyloam.PRM
  Tot(59)       15        4     2075    928.9    397.2   1566.8   529.00      0.0    928.9      0.0    634.6      0.0    124.4       55    161.5    161.5       96     0.000     0.000     0.000     0.000       82        0        0        0        0       16        2    12.386       90     30.9    3.828     1.35       10        7     2075  1212_RCP45_rainfed_15April_sandyloam.PRM
  Tot(60)       15        4     2076    710.1    389.0   1561.6   530.00      0.0    710.1      0.0    503.5      0.0     79.8       28    115.1    115.1      100     0.000     0.000     0.000     0.000       83        0        0        0        0       12       -0    12.512       87     30.1    3.761     1.94       11        7     2076  1212_RCP45_rainfed_15April_sandyloam.PRM
  Tot(61)       15        4     2077   1286.2    369.7   1572.1   530.00      0.0   1286.2      0.0   1016.1      0.0    110.0       46    140.4    140.4      100     0.000     0.000     0.000     0.000       84        0        0        0        0        6        0    13.214       93     30.0    3.964     1.59       12        7     2077  1212_RCP45_rainfed_15April_sandyloam.PRM
  Tot(62)       15        4     2078    362.1    454.0   1569.0   531.00      0.0    362.1      0.0    145.0      0.0     93.9       26     88.4     88.4       86     0.000     0.000     0.000     0.000       79        0        0        0        0       49        6     6.043       46     31.0    1.872     1.03        7        7     2078  1212_RCP45_rainfed_15April_sandyloam.PRM
  Tot(63)       15        4     2079    544.9    466.2   1557.7   531.00      0.0    544.9      0.0    342.5      0.0    110.0       31     87.4     87.4       82     0.000     0.000     0.000     0.000       78        0        0        0        0       45       10     4.611       36     30.6    1.409     0.72        6        7     2079  1212_RCP45_rainfed_15April_sandyloam.PRM
  Tot(64)       15        4     2080    568.3    451.8   1566.3   531.00      0.0    568.3      0.0    375.5      0.0    102.8       31     76.4     76.4       74     0.000     0.000     0.000     0.000       78        0        0        0        0       43       12     4.001       32     20.5    0.819     0.46        6        7     2080  1212_RCP45_rainfed_15April_sandyloam.PRM
  Tot(65)       15        4     2081    681.2    428.3   1572.2   531.00      0.0    681.2      0.0    440.9      0.0     90.7       30    137.6    137.6       99     0.000     0.000     0.000     0.000       81        0        0        0        0       20        0    11.449       84     30.1    3.442     1.51        9        7     2081  1212_RCP45_rainfed_15April_sandyloam.PRM
  Tot(66)       15        4     2082    825.1    402.8   1560.9   531.00      0.0    825.1      0.0    562.7      0.0     96.6       37    110.3    110.3       80     0.000     0.000     0.000     0.000       83        0        0        0        0       35        7     7.974       57     30.3    2.413     1.17       12        7     2082  1212_RCP45_rainfed_15April_sandyloam.PRM
  Tot(67)       15        4     2083    401.1    556.3   1562.5   532.00      0.0    401.1      0.0    234.1      0.0    100.1       21     65.5     65.5       82     0.000     0.000     0.000     0.000       75        0        0        0        0       55       10     2.914       23      9.9    0.289     0.18        3        7     2083  1212_RCP45_rainfed_15April_sandyloam.PRM
  Tot(68)       15        4     2084    989.6    419.6   1575.4   532.00      0.0    989.6      0.0    823.0      0.0     88.8       26     82.7     82.7       97     0.000     0.000     0.000     0.000       80        0        0        0        0       36        1     7.835       57     30.0    2.351     1.39        8        7     2084  1212_RCP45_rainfed_15April_sandyloam.PRM
  Tot(69)       15        4     2085    629.0    454.5   1567.9   532.00      0.0    629.0      0.0    380.9      0.0    108.5       33    119.9    119.9       93     0.000     0.000     0.000     0.000       78        0        0        0        0       35        4     8.307       64     30.0    2.492     1.10        6        7     2085  1212_RCP45_rainfed_15April_sandyloam.PRM
  Tot(70)       15        4     2086   1026.8    417.4   1561.6   532.00      0.0   1026.8      0.0    849.1      0.0     78.2       22     76.2     76.2       93     0.000     0.000     0.000     0.000       80        0        0        0        0       43        3     6.607       49     30.0    1.982     1.29        8        7     2086  1212_RCP45_rainfed_15April_sandyloam.PRM
  Tot(71)       15        4     2087    385.3    475.9   1562.6   533.00      0.0    385.3      0.0    107.4      0.0    100.7       29    128.3    128.3       97     0.000     0.000     0.000     0.000       77        0        0        0        0       36        1     8.602       65     30.6    2.632     1.15        5        7     2087  1212_RCP45_rainfed_15April_sandyloam.PRM
  Tot(72)       15        4     2088    807.4    450.5   1570.2   533.00      0.0    807.4      0.0    658.7      0.0     72.8       18     75.7     75.7       95     0.000     0.000     0.000     0.000       81        0        0        0        0       41        2     6.987       50     30.0    2.096     1.42        9        7     2088  1212_RCP45_rainfed_15April_sandyloam.PRM
  Tot(73)       15        4     2089    549.8    486.1   1567.1   533.00      0.0    549.8      0.0    356.2      0.0    111.2       28     70.8     70.8       82     0.000     0.000     0.000     0.000       75        0        0        0        0       50        9     3.691       30     14.6    0.537     0.30        3        7     2089  1212_RCP45_rainfed_15April_sandyloam.PRM
  Tot(74)       15        4     2090   1260.0    332.8   1569.2   534.00      0.0   1260.0      0.0   1087.8      0.0     72.2       28     84.8     84.8      100     0.000     0.000     0.000     0.000       85        0        0        0        0       13       -0    12.605       85     30.0    3.781     2.42       13        7     2090  1212_RCP45_rainfed_15April_sandyloam.PRM
  Tot(75)       15        4     2091    634.5    490.0   1557.3   534.00      0.0    634.5      0.0    339.2      0.0     79.4       20    113.7    113.7       97     0.000     0.000     0.000     0.000       77        0        0        0        0       39        2     7.232       56     30.0    2.169     1.12        4        7     2091  1212_RCP45_rainfed_15April_sandyloam.PRM
  Tot(76)       15        4     2092   1069.0    287.9   1574.4   535.00      0.0   1069.0      0.0    847.6      0.0    117.8       61     98.7     98.7      100     0.000     0.000     0.000     0.000       87        0        0        0        0        1       -0    14.572       98     30.0    4.372     2.04       15        7     2092  1212_RCP45_rainfed_15April_sandyloam.PRM
  Tot(77)       15        4     2093    531.5    451.9   1569.5   535.00      0.0    531.5      0.0    328.2      0.0    101.2       29     92.5     92.5       84     0.000     0.000     0.000     0.000       80        0        0        0        0       46        6     6.041       45     30.6    1.846     0.96        8        7     2093  1212_RCP45_rainfed_15April_sandyloam.PRM
  Tot(78)       15        4     2094    621.7    399.0   1563.7   535.00      0.0    621.7      0.0    359.1      0.0    117.7       43    124.9    124.9       96     0.000     0.000     0.000     0.000       80        0        0        0        0       26        2    10.557       78     30.1    3.181     1.31        8        7     2094  1212_RCP45_rainfed_15April_sandyloam.PRM
  Tot(79)       15        4     2095    638.1    475.0   1564.4   536.00      0.0    638.1      0.0    463.2      0.0     99.6       24     68.0     68.0       85     0.000     0.000     0.000     0.000       79        0        0        0        0       56        7     3.462       26     30.8    1.068     0.64        7        7     2095  1212_RCP45_rainfed_15April_sandyloam.PRM
  Tot(80)       15        4     2096    455.2    441.4   1566.3   536.00      0.0    455.2      0.0    230.2      0.0     94.6       30    123.3    123.3       89     0.000     0.000     0.000     0.000       77        0        0        0        0       34        5     8.420       65     30.7    2.588     1.19        5        7     2096  1212_RCP45_rainfed_15April_sandyloam.PRM
  Tot(81)       15        4     2097    832.4    442.3   1562.1   537.00      0.0    832.4      0.0    622.0      0.0     99.2       28     78.2     78.2       83     0.000     0.000     0.000     0.000       77        0        0        0        0       46        7     4.992       39     30.4    1.516     0.86        5        7     2097  1212_RCP45_rainfed_15April_sandyloam.PRM
  Tot(82)       15        4     2098    498.6    481.2   1568.5   537.00      0.0    498.6      0.0    268.7      0.0     85.5       25    137.9    137.9       91     0.000     0.000     0.000     0.000       77        0        0        0        0       35        4     8.784       68     30.5    2.683     1.21        5        7     2098  1212_RCP45_rainfed_15April_sandyloam.PRM
  Tot(83)       15        4     2099    705.7    397.9   1572.5   538.00      0.0    705.7      0.0    495.1      0.0     93.5       34    103.0    103.0       81     0.000     0.000     0.000     0.000       82        0        0        0        0       34        6     9.004       65     30.2    2.719     1.39       10        7     2099  1212_RCP45_rainfed_15April_sandyloam.PRM
