AquaCrop 6.0 (March 2017) - Output created on (date) : 28/06/2021   at (time) : 14:16:52

    RunNr     Day1   Month1    Year1     Rain      ETo       GD     CO2      Irri   Infilt   Runoff    Drain   Upflow        E     E/Ex       Tr      TrW   Tr/Trx    SaltIn   SaltOut    SaltUp  SaltProf     Cycle   SaltStr  FertStr  WeedStr  TempStr   ExpStr   StoStr  BioMass  Brelative   HI     Yield     WPet     DayN   MonthN    YearN
                                           mm       mm    °C.day    ppm        mm       mm       mm       mm       mm       mm        %       mm       mm        %    ton/ha    ton/ha    ton/ha    ton/ha      days       %        %        %        %        %        %    ton/ha        %       %    ton/ha    kg/m3
   Tot(1)       15        3     2017    266.1    537.7   1562.1   407.00    315.2    266.1      0.0    152.2      0.0    185.0       67    248.9    248.9      100     0.000     0.000     0.000     0.000       84        0        0        0        0        2        0    13.678       99     30.0    4.104     0.95       12        6     2017  1212_RCP85_net_15March_sandyloam.PRM
   Tot(2)       15        3     2018     89.2    578.8   1572.5   410.00    439.3     89.2      0.0     18.4      0.0    224.1       81    283.1    283.1      100     0.000     0.000     0.000     0.000       84        0        0        0        0        2        0    13.292       99     30.0    3.992     0.79       13        6     2018  1212_RCP85_net_15March_sandyloam.PRM
   Tot(3)       15        3     2019     67.8    582.6   1558.4   413.00    407.7     67.8      0.0      0.0      0.0    207.9       76    279.7    279.7      100     0.000     0.000     0.000     0.000       82        0        0        0        0        1        0    13.062       99     30.0    3.922     0.81       10        6     2019  1212_RCP85_net_15March_sandyloam.PRM
   Tot(4)       15        3     2020     55.8    595.0   1565.3   416.00    428.9     55.8      0.0      0.0      0.0    224.8       76    273.3    273.3      100     0.000     0.000     0.000     0.000       84        0        0        0        1        1        0    12.943       99     30.0    3.886     0.78       12        6     2020  1212_RCP85_net_15March_sandyloam.PRM
   Tot(5)       15        3     2021     74.6    595.5   1567.3   419.00    439.6     74.6      0.0      0.0      0.0    219.9       78    284.7    284.7      100     0.000     0.000     0.000     0.000       85        0        0        0        0        2        0    13.399       99     30.0    4.023     0.80       12        6     2021  1212_RCP85_net_15March_sandyloam.PRM
   Tot(6)       15        3     2022     10.1    650.9   1559.6   422.00    497.8     10.1      0.0      0.0      0.0    224.3       73    302.2    302.2      100     0.000     0.000     0.000     0.000       81        0        0        0        0        2        0    13.043       99     30.0    3.917     0.75        9        6     2022  1212_RCP85_net_15March_sandyloam.PRM
   Tot(7)       15        3     2023    119.1    562.0   1564.5   425.00    404.2    119.1      0.0     38.5      0.0    214.6       80    275.2    275.2      100     0.000     0.000     0.000     0.000       84        0        0        0        0        2        0    13.507       99     30.0    4.056     0.83       12        6     2023  1212_RCP85_net_15March_sandyloam.PRM
   Tot(8)       15        3     2024    119.3    582.0   1558.3   428.00    382.4    119.3      0.0     51.4      0.0    181.8       59    270.8    270.8      100     0.000     0.000     0.000     0.000       85        0        0        0        1        2        0    13.054       98     30.0    3.918     0.87       13        6     2024  1212_RCP85_net_15March_sandyloam.PRM
   Tot(9)       15        3     2025     49.2    599.3   1565.5   431.00    421.8     49.2      0.0      0.0      0.0    229.9       75    258.1    258.1      100     0.000     0.000     0.000     0.000       81        0        0        0        0        1        0    13.022       99     30.0    3.910     0.81       10        6     2025  1212_RCP85_net_15March_sandyloam.PRM
  Tot(10)       15        3     2026     87.3    569.7   1557.1   435.00    348.9     87.3      0.0     17.9      0.0    190.4       67    243.2    243.2      100     0.000     0.000     0.000     0.000       84        0        0        0        1        1        0    13.492       99     30.0    4.050     0.93       12        6     2026  1212_RCP85_net_15March_sandyloam.PRM
  Tot(11)       15        3     2027     47.6    642.0   1563.7   438.00    480.9     47.6      0.0      0.0      0.0    242.1       77    304.7    304.7      100     0.000     0.000     0.000     0.000       83        0        0        0        0        2        0    13.177       99     30.0    3.959     0.73       12        6     2027  1212_RCP85_net_15March_sandyloam.PRM
  Tot(12)       15        3     2028     51.4    609.7   1566.4   442.00    421.0     51.4      0.0     13.4      0.0    205.7       66    265.1    265.1      100     0.000     0.000     0.000     0.000       82        0        0        0        0        2        0    13.165       99     30.0    3.953     0.84       10        6     2028  1212_RCP85_net_15March_sandyloam.PRM
  Tot(13)       15        3     2029     70.3    549.4   1569.4   445.00    373.7     70.3      0.0      1.4      0.0    193.8       70    239.2    239.2      100     0.000     0.000     0.000     0.000       81        0        0        0        0        1        0    13.094       99     30.0    3.931     0.91        9        6     2029  1212_RCP85_net_15March_sandyloam.PRM
  Tot(14)       15        3     2030    112.1    589.2   1563.8   449.00    360.7    112.1      0.0     28.0      0.0    198.2       68    263.7    263.7      100     0.000     0.000     0.000     0.000       82        0        0        0        0        2        0    13.472       99     30.0    4.045     0.88       10        6     2030  1212_RCP85_net_15March_sandyloam.PRM
  Tot(15)       15        3     2031     39.1    629.7   1567.9   452.00    418.8     39.1      0.0      0.0      0.0    200.0       63    275.4    275.4      100     0.000     0.000     0.000     0.000       81        0        0        0        0        2        0    13.459       98     30.0    4.039     0.86        9        6     2031  1212_RCP85_net_15March_sandyloam.PRM
  Tot(16)       15        3     2032     58.8    628.9   1570.0   456.00    435.5     58.8      0.0      2.4      0.0    213.4       70    290.3    290.3      100     0.000     0.000     0.000     0.000       81        0        0        0        0        2        0    12.822       99     24.5    3.137     0.63        8        6     2032  1212_RCP85_net_15March_sandyloam.PRM
  Tot(17)       15        3     2033     51.7    631.2   1567.1   460.00    469.7     51.7      0.0     11.4      0.0    225.1       72    286.8    286.8      100     0.000     0.000     0.000     0.000       82        0        0        0        0        2        0    13.016       98     30.0    3.908     0.77       10        6     2033  1212_RCP85_net_15March_sandyloam.PRM
  Tot(18)       15        3     2034     82.5    565.0   1558.0   464.00    362.0     82.5      0.0      6.0      0.0    206.4       72    250.4    250.4      100     0.000     0.000     0.000     0.000       83        0        0        0        0        2        0    13.792       99     30.0    4.141     0.91       11        6     2034  1212_RCP85_net_15March_sandyloam.PRM
  Tot(19)       15        3     2035    183.4    528.7   1565.6   468.00    332.8    183.4      0.0     84.2      0.0    185.7       69    246.8    246.8      100     0.000     0.000     0.000     0.000       84        0        0        0        0        1        0    13.640       99     30.0    4.095     0.95       12        6     2035  1212_RCP85_net_15March_sandyloam.PRM
  Tot(20)       15        3     2036    174.6    518.7   1561.0   472.00    309.2    174.6      0.0     56.0      0.0    206.9       76    226.1    226.1      100     0.000     0.000     0.000     0.000       86        0        0        0        1        1        0    13.723       99     30.0    4.118     0.95       14        6     2036  1212_RCP85_net_15March_sandyloam.PRM
  Tot(21)       15        3     2037    200.9    544.9   1557.8   476.00    376.7    200.9      0.0     83.6      0.0    189.0       70    261.5    261.5      100     0.000     0.000     0.000     0.000       84        0        0        0        0        2        0    13.523       99     30.0    4.061     0.90       12        6     2037  1212_RCP85_net_15March_sandyloam.PRM
  Tot(22)       15        3     2038    130.7    549.1   1558.1   481.00    333.9    130.7      0.0     12.0      0.0    188.6       65    246.3    246.3      100     0.000     0.000     0.000     0.000       85        0        0        0        0        2        0    13.634       99     30.0    4.090     0.94       13        6     2038  1212_RCP85_net_15March_sandyloam.PRM
  Tot(23)       15        3     2039    122.6    611.8   1572.1   485.00    370.5    122.6      0.0     46.5      0.0    194.5       60    261.3    261.3      100     0.000     0.000     0.000     0.000       82        0        0        0        0        2        0    13.149       98     30.0    3.948     0.87       10        6     2039  1212_RCP85_net_15March_sandyloam.PRM
  Tot(24)       15        3     2040    149.6    618.2   1566.6   489.00    464.0    149.6      0.0     95.3      0.0    230.2       75    292.5    292.5      100     0.000     0.000     0.000     0.000       82        0        0        0        0        2        0    12.903       98     10.8    1.399     0.27       10        6     2040  1212_RCP85_net_15March_sandyloam.PRM
  Tot(25)       15        3     2041     33.8    618.7   1561.5   494.00    394.3     33.8      0.0      0.0      0.0    186.8       59    260.8    260.8      100     0.000     0.000     0.000     0.000       80        0        0        0        0        2        0    13.065       98     30.0    3.922     0.88        8        6     2041  1212_RCP85_net_15March_sandyloam.PRM
  Tot(26)       15        3     2042    118.5    532.3   1574.2   499.00    321.8    118.5      0.0     24.8      0.0    188.2       78    245.1    245.1      100     0.000     0.000     0.000     0.000       82        0        0        0        0        1        0    13.389       99     30.0    4.019     0.94        9        6     2042  1212_RCP85_net_15March_sandyloam.PRM
  Tot(27)       15        3     2043    201.8    587.4   1573.4   504.00    336.8    201.8      0.0     98.6      0.0    193.0       62    249.3    249.3      100     0.000     0.000     0.000     0.000       82        0        0        0        0        2        0    13.385       98     30.0    4.017     0.91        9        6     2043  1212_RCP85_net_15March_sandyloam.PRM
  Tot(28)       15        3     2044     61.7    560.2   1567.8   508.00    420.5     61.7      0.0     16.4      0.0    208.9       76    261.2    261.2      100     0.000     0.000     0.000     0.000       79        0        0        0        0        2        0    12.879       99     30.0    3.867     0.83        6        6     2044  1212_RCP85_net_15March_sandyloam.PRM
  Tot(29)       15        3     2045    142.9    583.9   1568.2   513.00    427.3    142.9      0.0     66.1      0.0    202.3       70    273.0    273.0      100     0.000     0.000     0.000     0.000       80        0        0        0        0        2        0    12.827       98     30.0    3.852     0.81        8        6     2045  1212_RCP85_net_15March_sandyloam.PRM
  Tot(30)       15        3     2046      1.0    654.3   1573.5   519.00    466.4      1.0      0.0      0.0      0.0    204.4       63    281.5    281.5      100     0.000     0.000     0.000     0.000       76        0        0        0        0        3        0    12.427       98     26.1    3.250     0.67        5        6     2046  1212_RCP85_net_15March_sandyloam.PRM
  Tot(31)       15        3     2047     58.7    589.1   1569.2   524.00    401.5     58.7      0.0      5.2      0.0    204.8       73    263.0    263.0      100     0.000     0.000     0.000     0.000       80        0        0        0        0        1        0    12.961       99     30.0    3.891     0.84        8        6     2047  1212_RCP85_net_15March_sandyloam.PRM
  Tot(32)       15        3     2048    180.0    547.4   1565.4   529.00    345.8    180.0      0.0     78.8      0.0    195.8       72    255.0    255.0      100     0.000     0.000     0.000     0.000       82        0        0        0        0        1        0    13.389       99     30.0    4.020     0.90       10        6     2048  1212_RCP85_net_15March_sandyloam.PRM
  Tot(33)       15        3     2049    132.1    560.6   1567.8   535.00    386.4    132.1      0.0     37.7      0.0    245.3       87    246.6    246.6      100     0.000     0.000     0.000     0.000       82        0        0        0        0        2        0    13.631       99     30.0    4.090     0.84       10        6     2049  1212_RCP85_net_15March_sandyloam.PRM
  Tot(34)       15        3     2050    278.4    517.7   1569.8   541.00    294.6    278.4      0.0    140.1      0.0    196.9       73    220.6    220.6      100     0.000     0.000     0.000     0.000       86        0        0        0        1        1        0    13.935       99     30.0    4.183     1.01       14        6     2050  1212_RCP85_net_15March_sandyloam.PRM
  Tot(35)       15        3     2051     59.9    586.6   1557.0   546.00    371.7     59.9      0.0      1.7      0.0    211.8       69    232.3    232.3      100     0.000     0.000     0.000     0.000       80        0        0        0        0        2        0    13.234       98     30.0    3.973     0.89        6        6     2051  1212_RCP85_net_15March_sandyloam.PRM
  Tot(36)       15        3     2052     70.9    593.8   1557.9   552.00    355.6     70.9      0.0      2.5      0.0    203.7       65    240.2    240.2      100     0.000     0.000     0.000     0.000       79        0        0        0        0        2        0    13.160       98     30.0    3.952     0.90        6        6     2052  1212_RCP85_net_15March_sandyloam.PRM
  Tot(37)       15        3     2053     75.4    593.5   1566.6   558.00    405.5     75.4      0.0     10.4      0.0    222.6       73    254.4    254.4      100     0.000     0.000     0.000     0.000       80        0        0        0        0        2        0    13.089       98     30.0    3.929     0.83        7        6     2053  1212_RCP85_net_15March_sandyloam.PRM
  Tot(38)       15        3     2054     41.4    608.9   1572.4   564.00    435.9     41.4      0.0      0.0      0.0    215.8       73    270.1    270.1      100     0.000     0.000     0.000     0.000       78        0        0        0        0        2        0    12.762       98     30.0    3.832     0.79        5        6     2054  1212_RCP85_net_15March_sandyloam.PRM
  Tot(39)       15        3     2055     67.4    546.2   1565.2   571.00    331.3     67.4      0.0      4.1      0.0    186.1       65    227.2    227.2      100     0.000     0.000     0.000     0.000       80        0        0        0        0        2        0    13.206       99     30.0    3.965     0.97        8        6     2055  1212_RCP85_net_15March_sandyloam.PRM
  Tot(40)       15        3     2056    205.4    520.0   1561.5   577.00    312.9    205.4      0.0     76.9      0.0    203.5       78    228.5    228.5      100     0.000     0.000     0.000     0.000       82        0        0        0        0        1        0    13.628       99     30.0    4.090     0.95       10        6     2056  1212_RCP85_net_15March_sandyloam.PRM
  Tot(41)       15        3     2057     38.3    602.6   1571.4   583.00    418.2     38.3      0.0      0.0      0.0    189.9       63    259.8    259.8      100     0.000     0.000     0.000     0.000       77        0        0        0        0        2        0    12.716       98     30.0    3.819     0.85        5        6     2057  1212_RCP85_net_15March_sandyloam.PRM
  Tot(42)       15        3     2058    121.7    547.7   1567.0   590.00    375.5    121.7      0.0     57.9      0.0    193.4       71    251.8    251.8      100     0.000     0.000     0.000     0.000       80        0        0        0        0        2        0    13.153       99     19.7    2.586     0.58        8        6     2058  1212_RCP85_net_15March_sandyloam.PRM
  Tot(43)       15        3     2059     56.2    625.4   1566.9   597.00    421.7     56.2      0.0      6.5      0.0    221.2       71    268.9    268.9      100     0.000     0.000     0.000     0.000       79        0        0        0        0        2        0    13.015       98     30.0    3.907     0.80        7        6     2059  1212_RCP85_net_15March_sandyloam.PRM
  Tot(44)       15        3     2060     71.4    631.7   1571.6   604.00    398.0     71.4      0.0     11.4      0.0    220.9       67    256.1    256.1      100     0.000     0.000     0.000     0.000       80        0        0        0        0        2        0    13.358       98     30.0    4.009     0.85        7        6     2060  1212_RCP85_net_15March_sandyloam.PRM
  Tot(45)       15        3     2061     53.4    545.4   1573.7   611.00    363.8     53.4      0.0      0.0      0.0    193.7       75    241.1    241.1      100     0.000     0.000     0.000     0.000       78        0        0        0        0        2        0    12.919       99     30.0    3.878     0.90        5        6     2061  1212_RCP85_net_15March_sandyloam.PRM
  Tot(46)       15        3     2062    135.0    555.7   1566.9   618.00    268.4    135.0      0.0     29.0      0.0    180.9       58    206.7    206.7      100     0.000     0.000     0.000     0.000       81        0        0        0        0        1        0    13.887       98     30.0    4.168     1.09        9        6     2062  1212_RCP85_net_15March_sandyloam.PRM
  Tot(47)       15        3     2063    215.0    518.5   1573.8   625.00    281.6    215.0      0.0     89.4      0.0    182.2       66    223.5    223.5      100     0.000     0.000     0.000     0.000       83        0        0        0        0        2        0    13.692       98     30.0    4.110     1.02       10        6     2063  1212_RCP85_net_15March_sandyloam.PRM
  Tot(48)       15        3     2064     70.7    559.3   1569.5   632.00    354.9     70.7      0.0      0.0      0.0    197.7       78    246.9    246.9      100     0.000     0.000     0.000     0.000       79        0        0        0        0        1        0    13.352       99     30.0    4.009     0.91        6        6     2064  1212_RCP85_net_15March_sandyloam.PRM
  Tot(49)       15        3     2065    469.7    536.2   1561.0   639.00    333.5    469.7      0.0    352.8      0.0    198.9       72    237.8    237.8      100     0.000     0.000     0.000     0.000       81        0        0        0        0        2        0    13.395       98     30.0    4.021     0.92        9        6     2065  1212_RCP85_net_15March_sandyloam.PRM
  Tot(50)       15        3     2066     35.3    635.3   1564.5   647.00    433.3     35.3      0.0      0.0      0.0    225.0       70    262.9    262.9      100     0.000     0.000     0.000     0.000       76        0        0        0        0        3        0    12.783       97     30.0    3.838     0.79        4        6     2066  1212_RCP85_net_15March_sandyloam.PRM
  Tot(51)       15        3     2067     50.2    553.0   1562.9   654.00    402.8     50.2      0.0      0.0      0.0    210.2       80    251.4    251.4      100     0.000     0.000     0.000     0.000       79        0        0        0        0        2        0    13.233       99     30.0    3.972     0.86        6        6     2067  1212_RCP85_net_15March_sandyloam.PRM
  Tot(52)       15        3     2068     65.1    582.5   1567.2   662.00    349.6     65.1      0.0      6.5      0.0    182.0       60    240.7    240.7      100     0.000     0.000     0.000     0.000       77        0        0        0        0        2        0    12.951       98     30.0    3.888     0.92        4        6     2068  1212_RCP85_net_15March_sandyloam.PRM
  Tot(53)       15        3     2069    168.9    527.7   1574.7   669.00    294.1    168.9      0.0     27.9      0.0    211.3       78    218.5    218.5      100     0.000     0.000     0.000     0.000       82        0        0        0        0        1        0    13.628       99     30.0    4.090     0.96       10        6     2069  1212_RCP85_net_15March_sandyloam.PRM
  Tot(54)       15        3     2070    165.2    546.5   1558.2   677.00    342.3    165.2      0.0     82.0      0.0    185.0       67    235.9    235.9      100     0.000     0.000     0.000     0.000       79        0        0        0        0        2        0    12.942       99     30.0    3.885     0.92        6        6     2070  1212_RCP85_net_15March_sandyloam.PRM
  Tot(55)       15        3     2071    277.9    455.9   1559.1   685.00    174.4    277.9      0.0    107.6      0.0    181.9       75    177.2    177.2      100     0.000     0.000     0.000     0.000       82        0        0        0        0        1        0    14.225       99     30.0    4.268     1.20        9        6     2071  1212_RCP85_net_15March_sandyloam.PRM
  Tot(56)       15        3     2072    199.4    539.7   1568.5   693.00    258.2    199.4      0.0     83.5      0.0    173.2       56    202.4    202.4      100     0.000     0.000     0.000     0.000       80        0        0        0        0        2        0    13.415       98     30.0    4.024     1.08        7        6     2072  1212_RCP85_net_15March_sandyloam.PRM
  Tot(57)       15        3     2073     28.0    617.6   1576.1   701.00    420.2     28.0      0.0      0.3      0.0    203.1       68    263.8    263.8      100     0.000     0.000     0.000     0.000       75        0        0        0        0        2        0    12.494       98     14.6    1.829     0.40        2        6     2073  1212_RCP85_net_15March_sandyloam.PRM
  Tot(58)       15        3     2074     64.6    574.3   1557.9   709.00    355.4     64.6      0.0      5.4      0.0    191.9       65    236.1    236.1      100     0.000     0.000     0.000     0.000       76        0        0        0        0        2        0    12.813       98     30.0    3.845     0.90        4        6     2074  1212_RCP85_net_15March_sandyloam.PRM
  Tot(59)       15        3     2075     48.5    623.3   1561.8   717.00    401.1     48.5      0.0      0.0      0.0    214.2       67    254.0    254.0      100     0.000     0.000     0.000     0.000       76        0        0        0        0        3        0    12.759       97     30.0    3.829     0.83        3        6     2075  1212_RCP85_net_15March_sandyloam.PRM
  Tot(60)       15        3     2076    334.5    473.6   1567.7   725.00    216.9    334.5      0.0    166.5      0.0    168.7       63    187.8    187.8      100     0.000     0.000     0.000     0.000       82        0        0        0        0        2        0    13.847       98     30.0    4.154     1.17        9        6     2076  1212_RCP85_net_15March_sandyloam.PRM
  Tot(61)       15        3     2077    211.8    523.2   1560.3   733.00    240.7    211.8      0.0     85.1      0.0    190.6       65    191.7    191.7      100     0.000     0.000     0.000     0.000       79        0        0        0        0        2        0    13.470       98     30.0    4.041     1.06        7        6     2077  1212_RCP85_net_15March_sandyloam.PRM
  Tot(62)       15        3     2078     46.9    582.2   1565.6   742.00    383.0     46.9      0.0      0.0      0.0    183.5       64    253.2    253.2      100     0.000     0.000     0.000     0.000       75        0        0        0        0        2        0    12.468       99     19.4    2.413     0.56        3        6     2078  1212_RCP85_net_15March_sandyloam.PRM
  Tot(63)       15        3     2079    178.5    581.8   1557.5   750.00    376.8    178.5      0.0     51.1      0.0    207.6       74    249.4    249.4      100     0.000     0.000     0.000     0.000       78        0        0        0        0        2        0    12.777       99     23.5    3.002     0.66        4        6     2079  1212_RCP85_net_15March_sandyloam.PRM
  Tot(64)       15        3     2080    434.6    536.7   1573.3   758.00    334.1    434.6      0.0    344.6      0.0    202.9       74    230.7    230.7      100     0.000     0.000     0.000     0.000       78        0        0        0        0        3        0    13.230       98     26.3    3.477     0.81        5        6     2080  1212_RCP85_net_15March_sandyloam.PRM
  Tot(65)       15        3     2081    203.9    585.0   1565.9   767.00    331.0    203.9      0.0     91.9      0.0    184.0       59    237.7    237.7      100     0.000     0.000     0.000     0.000       78        0        0        0        0        3        0    12.869       97     30.0    3.863     0.92        5        6     2081  1212_RCP85_net_15March_sandyloam.PRM
  Tot(66)       15        3     2082    401.1    422.5   1575.4   775.00    174.9    401.1      0.0    240.0      0.0    173.3       74    169.9    169.9      100     0.000     0.000     0.000     0.000       84        0        0        0        0        0        0    14.173       99     30.0    4.253     1.25       11        6     2082  1212_RCP85_net_15March_sandyloam.PRM
  Tot(67)       15        3     2083    222.4    598.0   1560.3   784.00    404.2    222.4      0.0    144.3      0.0    271.0       85    225.7    225.7      100     0.000     0.000     0.000     0.000       77        0        0        0        0        2        0    12.953       97     30.0    3.888     0.78        4        6     2083  1212_RCP85_net_15March_sandyloam.PRM
  Tot(68)       15        3     2084    119.9    581.8   1561.0   792.00    307.4    119.9      0.0      0.0      0.0    222.2       73    223.0    223.0      100     0.000     0.000     0.000     0.000       77        0        0        0        0        2        0    13.191       98     30.0    3.959     0.90        4        6     2084  1212_RCP85_net_15March_sandyloam.PRM
  Tot(69)       15        3     2085    131.6    521.0   1562.4   801.00    352.3    131.6      0.0     61.5      0.0    193.7       75    217.5    217.5      100     0.000     0.000     0.000     0.000       77        0        0        0        0        1        0    12.740       99     30.0    3.825     0.93        4        6     2085  1212_RCP85_net_15March_sandyloam.PRM
  Tot(70)       15        3     2086     84.0    542.7   1576.3   810.00    316.7     84.0      0.0     30.5      0.0    194.2       65    196.3    196.3      100     0.000     0.000     0.000     0.000       77        0        0        0        0        2        0    12.892       98     22.5    2.898     0.75        4        6     2086  1212_RCP85_net_15March_sandyloam.PRM
  Tot(71)       15        3     2087    112.1    587.3   1574.7   818.00    273.5    112.1      0.0     23.7      0.0    167.5       51    209.2    209.2      100     0.000     0.000     0.000     0.000       76        0        0        0        0        3        0    12.688       97     30.0    3.808     1.01        3        6     2087  1212_RCP85_net_15March_sandyloam.PRM
  Tot(72)       15        3     2088    158.0    562.6   1569.9   827.00    313.1    158.0      0.0     69.2      0.0    201.3       67    211.7    211.7      100     0.000     0.000     0.000     0.000       77        0        0        0        0        2        0    13.105       98     24.2    3.175     0.78        4        6     2088  1212_RCP85_net_15March_sandyloam.PRM
  Tot(73)       15        3     2089     51.5    608.9   1574.3   836.00    387.0     51.5      0.0     14.8      0.0    188.0       60    249.7    249.7      100     0.000     0.000     0.000     0.000       75        0        0        0        0        3        0    12.321       97      0.9    0.115     0.03        2        6     2089  1212_RCP85_net_15March_sandyloam.PRM
  Tot(74)       15        3     2090     22.0    593.0   1561.0   845.00    399.9     22.0      0.0      0.0      0.0    198.4       68    241.6    241.6      100     0.000     0.000     0.000     0.000       74        0        0        0        0        2        0    12.642       99     26.5    3.346     0.77        1        6     2090  1212_RCP85_net_15March_sandyloam.PRM
  Tot(75)       15        3     2091    104.0    557.0   1570.4   854.00    328.1    104.0      0.0     41.4      0.0    210.6       72    198.8    198.8      100     0.000     0.000     0.000     0.000       77        0        0        0        0        1        0    13.143       98     30.0    3.948     0.97        4        6     2091  1212_RCP85_net_15March_sandyloam.PRM
  Tot(76)       15        3     2092    193.9    510.4   1559.2   863.00    259.1    193.9      0.0     33.0      0.0    199.7       76    197.8    197.8      100     0.000     0.000     0.000     0.000       77        0        0        0        0        1        0    13.172       98     30.0    3.953     1.00        4        6     2092  1212_RCP85_net_15March_sandyloam.PRM
  Tot(77)       15        3     2093    115.9    531.5   1573.4   872.00    359.9    115.9      0.0     47.2      0.0    202.9       80    228.9    228.9      100     0.000     0.000     0.000     0.000       75        0        0        0        0        2        0    12.532       99     26.6    3.335     0.78        2        6     2093  1212_RCP85_net_15March_sandyloam.PRM
  Tot(78)       15        3     2094    246.7    499.0   1565.3   881.00    275.0    246.7      0.0    141.9      0.0    187.3       73    202.2    202.2      100     0.000     0.000     0.000     0.000       78        0        0        0        0        1        0    13.275       99     30.0    3.986     1.03        5        6     2094  1212_RCP85_net_15March_sandyloam.PRM
  Tot(79)       15        3     2095    143.7    496.9   1563.6   890.00    224.0    143.7      0.0     22.1      0.0    175.7       65    174.8    174.8      100     0.000     0.000     0.000     0.000       76        0        0        0        0        1        0    13.134       98     30.0    3.941     1.14        4        6     2095  1212_RCP85_net_15March_sandyloam.PRM
  Tot(80)       15        3     2096    155.6    580.4   1562.4   899.00    290.6    155.6      0.0     47.1      0.0    198.4       69    220.1    220.1      100     0.000     0.000     0.000     0.000       76        0        0        0        0        1        0    12.982       99     27.1    3.523     0.85        3        6     2096  1212_RCP85_net_15March_sandyloam.PRM
  Tot(81)       15        3     2097    104.9    570.2   1561.5   908.00    333.1    104.9      0.0     42.2      0.0    185.1       60    218.9    218.9      100     0.000     0.000     0.000     0.000       74        0        0        0        0        3        0    12.360       97     29.5    3.649     0.91        1        6     2097  1212_RCP85_net_15March_sandyloam.PRM
  Tot(82)       15        3     2098    134.9    532.4   1566.6   917.00    280.2    134.9      0.0     18.2      0.0    188.8       67    196.9    196.9      100     0.000     0.000     0.000     0.000       76        0        0        0        0        2        0    12.864       98     30.0    3.861     1.00        3        6     2098  1212_RCP85_net_15March_sandyloam.PRM
  Tot(83)       15        3     2099    301.1    525.3   1563.1   927.00    279.3    301.1      0.0    179.4      0.0    174.5       63    210.0    210.0      100     0.000     0.000     0.000     0.000       76        0        0        0        0        2        0    12.732       98     30.0    3.823     1.00        3        6     2099  1212_RCP85_net_15March_sandyloam.PRM
