AquaCrop 6.0 (March 2017) - Output created on (date) : 28/06/2021   at (time) : 14:07:20

    RunNr     Day1   Month1    Year1     Rain      ETo       GD     CO2      Irri   Infilt   Runoff    Drain   Upflow        E     E/Ex       Tr      TrW   Tr/Trx    SaltIn   SaltOut    SaltUp  SaltProf     Cycle   SaltStr  FertStr  WeedStr  TempStr   ExpStr   StoStr  BioMass  Brelative   HI     Yield     WPet     DayN   MonthN    YearN
                                           mm       mm    °C.day    ppm        mm       mm       mm       mm       mm       mm        %       mm       mm        %    ton/ha    ton/ha    ton/ha    ton/ha      days       %        %        %        %        %        %    ton/ha        %       %    ton/ha    kg/m3
   Tot(1)       15        3     2017      8.4    661.7   1576.4   404.00    478.8      8.4      0.0      0.0      0.0    222.9       64    283.3    283.3      100     0.000     0.000     0.000     0.000       82        0        0        0        0        3        0    12.802       97     30.0    3.842     0.77       11        6     2017  1212_RCP45_net_15March_sandyloam.PRM
   Tot(2)       15        3     2018    197.1    584.6   1573.9   407.00    418.0    197.1      0.0    123.5      0.0    238.5       79    261.8    261.8      100     0.000     0.000     0.000     0.000       85        0        0        0        0        1        0    13.321       99     30.0    3.999     0.80       14        6     2018  1212_RCP45_net_15March_sandyloam.PRM
   Tot(3)       15        3     2019     20.1    656.9   1562.2   409.00    501.4     20.1      0.0      0.0      0.0    252.4       77    288.3    288.3      100     0.000     0.000     0.000     0.000       81        0        0        0        0        2        0    12.837       98     30.0    3.855     0.72        9        6     2019  1212_RCP45_net_15March_sandyloam.PRM
   Tot(4)       15        3     2020    129.7    624.5   1566.7   411.00    461.2    129.7      0.0     68.3      0.0    216.2       70    297.6    297.6      100     0.000     0.000     0.000     0.000       84        0        0        0        1        2        0    13.053       99     30.0    3.921     0.77       12        6     2020  1212_RCP45_net_15March_sandyloam.PRM
   Tot(5)       15        3     2021    378.1    450.6   1570.6   413.00    257.4    378.1      0.0    237.8      0.0    181.6       77    207.8    207.8      100     0.000     0.000     0.000     0.000       89        0        0        0        1        1        0    13.873       99     30.0    4.163     1.07       17        6     2021  1212_RCP45_net_15March_sandyloam.PRM
   Tot(6)       15        3     2022    154.3    563.5   1559.3   416.00    332.6    154.3      0.0     46.8      0.0    194.9       67    253.6    253.6      100     0.000     0.000     0.000     0.000       84        0        0        0        0        1        0    13.580       99     30.0    4.075     0.91       12        6     2022  1212_RCP45_net_15March_sandyloam.PRM
   Tot(7)       15        3     2023    213.4    530.6   1572.4   418.00    361.8    213.4      0.0    121.5      0.0    198.8       72    245.5    245.5      100     0.000     0.000     0.000     0.000       86        0        0        0        0        1        0    13.335       99     30.0    4.003     0.91       15        6     2023  1212_RCP45_net_15March_sandyloam.PRM
   Tot(8)       15        3     2024     46.4    611.8   1567.0   420.00    424.7     46.4      0.0      0.0      0.0    218.2       71    271.3    271.3      100     0.000     0.000     0.000     0.000       83        0        0        0        1        2        0    13.238       99     30.0    3.975     0.82       12        6     2024  1212_RCP45_net_15March_sandyloam.PRM
   Tot(9)       15        3     2025     14.3    715.7   1571.2   423.00    520.1     14.3      0.0      0.0      0.0    213.5       61    339.7    339.7      100     0.000     0.000     0.000     0.000       82        0        0        0        0        3        0    13.027       97     30.0    3.913     0.71       10        6     2025  1212_RCP45_net_15March_sandyloam.PRM
  Tot(10)       15        3     2026    125.1    581.9   1569.9   425.00    343.0    125.1      0.0     13.4      0.0    200.7       70    267.3    267.3      100     0.000     0.000     0.000     0.000       84        0        0        0        0        2        0    13.314       99     30.0    3.997     0.86       12        6     2026  1212_RCP45_net_15March_sandyloam.PRM
  Tot(11)       15        3     2027     25.8    649.3   1569.6   428.00    451.8     25.8      0.0      0.0      0.0    211.9       65    284.3    284.3      100     0.000     0.000     0.000     0.000       79        0        0        0        0        2        0    12.617       98     30.0    3.788     0.77        7        6     2027  1212_RCP45_net_15March_sandyloam.PRM
  Tot(12)       15        3     2028    146.8    549.9   1568.5   430.00    338.6    146.8      0.0     22.8      0.0    235.2       80    238.7    238.7      100     0.000     0.000     0.000     0.000       86        0        0        0        0        1        0    13.837       99     30.0    4.153     0.88       15        6     2028  1212_RCP45_net_15March_sandyloam.PRM
  Tot(13)       15        3     2029     25.7    601.1   1564.5   433.00    447.3     25.7      0.0      0.0      0.0    212.9       75    279.5    279.5      100     0.000     0.000     0.000     0.000       81        0        0        0        0        2        0    13.175       99     30.0    3.956     0.81        9        6     2029  1212_RCP45_net_15March_sandyloam.PRM
  Tot(14)       15        3     2030    104.8    558.6   1572.1   435.00    339.3    104.8      0.0      0.0      0.0    206.4       73    251.7    251.7      100     0.000     0.000     0.000     0.000       84        0        0        0        0        1        0    13.605       99     30.0    4.084     0.89       12        6     2030  1212_RCP45_net_15March_sandyloam.PRM
  Tot(15)       15        3     2031     67.0    604.6   1577.8   438.00    406.2     67.0      0.0      0.0      0.0    224.6       78    267.1    267.1      100     0.000     0.000     0.000     0.000       83        0        0        0        0        1        0    13.538       99     30.0    4.063     0.83       10        6     2031  1212_RCP45_net_15March_sandyloam.PRM
  Tot(16)       15        3     2032     28.1    602.0   1565.1   440.00    452.2     28.1      0.0      0.0      0.0    242.4       79    256.7    256.7      100     0.000     0.000     0.000     0.000       80        0        0        0        0        2        0    13.103       99     30.0    3.932     0.79        9        6     2032  1212_RCP45_net_15March_sandyloam.PRM
  Tot(17)       15        3     2033    186.0    590.5   1561.0   443.00    428.7    186.0      0.0     85.7      0.0    245.6       84    270.5    270.5      100     0.000     0.000     0.000     0.000       81        0        0        0        0        2        0    13.079       99     30.0    3.927     0.77       10        6     2033  1212_RCP45_net_15March_sandyloam.PRM
  Tot(18)       15        3     2034    171.6    518.8   1566.3   445.00    352.9    171.6      0.0     76.3      0.0    205.6       78    236.1    236.1      100     0.000     0.000     0.000     0.000       84        0        0        0        0        1        0    13.523       99     30.0    4.060     0.93       12        6     2034  1212_RCP45_net_15March_sandyloam.PRM
  Tot(19)       15        3     2035     99.1    556.0   1561.7   448.00    344.4     99.1      0.0     20.0      0.0    179.3       64    255.6    255.6      100     0.000     0.000     0.000     0.000       81        0        0        0        0        1        0    13.153       99     30.0    3.949     0.91        9        6     2035  1212_RCP45_net_15March_sandyloam.PRM
  Tot(20)       15        3     2036    126.4    568.8   1570.5   450.00    287.5    126.4      0.0      5.2      0.0    191.6       62    235.1    235.1      100     0.000     0.000     0.000     0.000       82        0        0        0        0        2        0    13.350       98     30.0    4.006     0.95       10        6     2036  1212_RCP45_net_15March_sandyloam.PRM
  Tot(21)       15        3     2037     83.5    547.1   1562.7   453.00    411.8     83.5      0.0     16.7      0.0    199.2       81    277.8    277.8      100     0.000     0.000     0.000     0.000       82        0        0        0        0        1        0    13.358       99     30.0    4.012     0.85       10        6     2037  1212_RCP45_net_15March_sandyloam.PRM
  Tot(22)       15        3     2038    138.7    570.9   1557.1   456.00    347.1    138.7      0.0     24.7      0.0    216.5       75    256.1    256.1      100     0.000     0.000     0.000     0.000       84        0        0        0        0        2        0    13.849       99     30.0    4.155     0.88       11        6     2038  1212_RCP45_net_15March_sandyloam.PRM
  Tot(23)       15        3     2039    129.5    495.9   1560.4   458.00    296.7    129.5      0.0      5.3      0.0    199.8       77    221.7    221.7      100     0.000     0.000     0.000     0.000       84        0        0        0        0        1        0    13.815       99     30.0    4.146     0.99       12        6     2039  1212_RCP45_net_15March_sandyloam.PRM
  Tot(24)       15        3     2040     45.6    574.1   1560.2   461.00    376.0     45.6      0.0      0.0      0.0    190.5       66    249.6    249.6      100     0.000     0.000     0.000     0.000       80        0        0        0        0        2        0    13.196       99     30.0    3.961     0.91        8        6     2040  1212_RCP45_net_15March_sandyloam.PRM
  Tot(25)       15        3     2041     13.7    661.7   1561.5   463.00    491.1     13.7      0.0      0.0      0.0    236.5       70    288.1    288.1      100     0.000     0.000     0.000     0.000       81        0        0        0        0        3        0    12.887       98     30.0    3.870     0.74        9        6     2041  1212_RCP45_net_15March_sandyloam.PRM
  Tot(26)       15        3     2042     40.3    595.5   1577.1   466.00    403.1     40.3      0.0      0.0      0.0    210.9       72    250.7    250.7      100     0.000     0.000     0.000     0.000       82        0        0        0        0        1        0    13.281       99     30.0    3.986     0.87       10        6     2042  1212_RCP45_net_15March_sandyloam.PRM
  Tot(27)       15        3     2043    136.7    611.5   1565.4   469.00    443.3    136.7      0.0     76.3      0.0    213.6       73    292.9    292.9      100     0.000     0.000     0.000     0.000       82        0        0        0        0        2        0    12.952       99     30.0    3.891     0.77       10        6     2043  1212_RCP45_net_15March_sandyloam.PRM
  Tot(28)       15        3     2044    154.5    584.3   1572.9   471.00    419.2    154.5      0.0     81.9      0.0    220.3       73    264.3    264.3      100     0.000     0.000     0.000     0.000       81        0        0        0        0        2        0    12.858       98     15.6    2.007     0.42        9        6     2044  1212_RCP45_net_15March_sandyloam.PRM
  Tot(29)       15        3     2045    278.4    479.6   1564.0   474.00    225.3    278.4      0.0    122.7      0.0    187.2       79    210.3    210.3      100     0.000     0.000     0.000     0.000       85        0        0        0        0        0        0    14.291       99     30.0    4.289     1.09       12        6     2045  1212_RCP45_net_15March_sandyloam.PRM
  Tot(30)       15        3     2046    201.6    548.8   1559.1   476.00    364.5    201.6      0.0     55.9      0.0    208.3       74    254.3    254.3      100     0.000     0.000     0.000     0.000       85        0        0        0        1        1        0    13.599       99     30.0    4.083     0.88       13        6     2046  1212_RCP45_net_15March_sandyloam.PRM
  Tot(31)       15        3     2047    277.2    521.5   1557.2   479.00    331.1    277.2      0.0    155.7      0.0    183.8       69    246.8    246.8      100     0.000     0.000     0.000     0.000       84        0        0        0        0        1        0    13.362       99     30.0    4.011     0.93       11        6     2047  1212_RCP45_net_15March_sandyloam.PRM
  Tot(32)       15        3     2048     71.5    570.3   1558.2   481.00    368.7     71.5      0.0      0.7      0.0    189.7       68    264.2    264.2      100     0.000     0.000     0.000     0.000       80        0        0        0        0        2        0    13.243       99     30.0    3.977     0.88        8        6     2048  1212_RCP45_net_15March_sandyloam.PRM
  Tot(33)       15        3     2049     25.5    613.2   1568.9   484.00    482.4     25.5      0.0      0.0      0.0    270.4       88    255.8    255.8      100     0.000     0.000     0.000     0.000       80        0        0        0        0        2        0    13.230       98     30.0    3.971     0.76        8        6     2049  1212_RCP45_net_15March_sandyloam.PRM
  Tot(34)       15        3     2050    202.2    531.7   1565.1   487.00    254.5    202.2      0.0     57.4      0.0    183.5       64    214.8    214.8      100     0.000     0.000     0.000     0.000       83        0        0        0        0        1        0    13.798       98     30.0    4.141     1.05       10        6     2050  1212_RCP45_net_15March_sandyloam.PRM
  Tot(35)       15        3     2051     80.0    630.7   1575.7   489.00    427.6     80.0      0.0     24.4      0.0    212.9       69    288.3    288.3      100     0.000     0.000     0.000     0.000       80        0        0        0        0        2        0    12.911       98     30.0    3.878     0.78        8        6     2051  1212_RCP45_net_15March_sandyloam.PRM
  Tot(36)       15        3     2052     94.7    592.2   1565.3   492.00    422.5     94.7      0.0     49.0      0.0    211.3       75    275.2    275.2      100     0.000     0.000     0.000     0.000       80        0        0        0        0        2        0    12.933       99     30.0    3.883     0.80        8        6     2052  1212_RCP45_net_15March_sandyloam.PRM
  Tot(37)       15        3     2053    254.7    564.7   1566.7   494.00    370.8    254.7      0.0    176.3      0.0    189.2       65    264.0    264.0      100     0.000     0.000     0.000     0.000       83        0        0        0        0        2        0    13.431       99     30.0    4.034     0.90       11        6     2053  1212_RCP45_net_15March_sandyloam.PRM
  Tot(38)       15        3     2054     61.7    600.3   1570.7   496.00    420.6     61.7      0.0     18.7      0.0    224.5       75    257.9    257.9      100     0.000     0.000     0.000     0.000       78        0        0        0        0        2        0    12.994       99     30.0    3.902     0.81        6        6     2054  1212_RCP45_net_15March_sandyloam.PRM
  Tot(39)       15        3     2055    173.3    559.3   1565.6   498.00    337.9    173.3      0.0     34.5      0.0    216.0       76    249.6    249.6      100     0.000     0.000     0.000     0.000       82        0        0        0        0        2        0    13.641       99     30.0    4.093     0.88       10        6     2055  1212_RCP45_net_15March_sandyloam.PRM
  Tot(40)       15        3     2056     97.0    546.1   1568.9   501.00    346.8     97.0      0.0     26.8      0.0    183.0       69    249.1    249.1      100     0.000     0.000     0.000     0.000       80        0        0        0        0        2        0    13.468       99     30.0    4.043     0.94        7        6     2056  1212_RCP45_net_15March_sandyloam.PRM
  Tot(41)       15        3     2057     48.1    614.0   1577.7   503.00    450.4     48.1      0.0      8.0      0.0    233.0       75    276.8    276.8      100     0.000     0.000     0.000     0.000       80        0        0        0        0        2        0    12.997       98     30.0    3.901     0.77        8        6     2057  1212_RCP45_net_15March_sandyloam.PRM
  Tot(42)       15        3     2058    205.5    528.1   1563.0   505.00    324.8    205.5      0.0     81.0      0.0    181.1       69    247.8    247.8      100     0.000     0.000     0.000     0.000       82        0        0        0        0        1        0    13.507       99     30.0    4.056     0.95       11        6     2058  1212_RCP45_net_15March_sandyloam.PRM
  Tot(43)       15        3     2059    483.2    515.9   1563.6   507.00    277.3    483.2      0.0    360.1      0.0    190.0       70    219.5    219.5      100     0.000     0.000     0.000     0.000       84        0        0        0        0        1        0    14.132       99     30.0    4.243     1.05       12        6     2059  1212_RCP45_net_15March_sandyloam.PRM
  Tot(44)       15        3     2060     74.0    548.9   1563.7   509.00    358.0     74.0      0.0      0.0      0.0    192.4       71    251.6    251.6      100     0.000     0.000     0.000     0.000       78        0        0        0        0        2        0    13.071       99     30.0    3.924     0.89        6        6     2060  1212_RCP45_net_15March_sandyloam.PRM
  Tot(45)       15        3     2061    131.5    567.3   1564.8   511.00    387.8    131.5      0.0     67.9      0.0    216.1       79    254.1    254.1      100     0.000     0.000     0.000     0.000       81        0        0        0        0        1        0    13.337       99     30.0    4.004     0.86        9        6     2061  1212_RCP45_net_15March_sandyloam.PRM
  Tot(46)       15        3     2062     64.2    603.1   1562.8   513.00    442.3     64.2      0.0     20.2      0.0    219.4       72    275.6    275.6      100     0.000     0.000     0.000     0.000       80        0        0        0        0        2        0    13.098       98     30.0    3.933     0.80        8        6     2062  1212_RCP45_net_15March_sandyloam.PRM
  Tot(47)       15        3     2063     91.3    586.4   1559.6   514.00    413.6     91.3      0.0     12.8      0.0    201.1       73    273.9    273.9      100     0.000     0.000     0.000     0.000       79        0        0        0        0        2        0    13.026       99     30.0    3.910     0.83        6        6     2063  1212_RCP45_net_15March_sandyloam.PRM
  Tot(48)       15        3     2064    161.9    574.6   1576.8   516.00    320.7    161.9      0.0     36.9      0.0    211.9       70    246.5    246.5      100     0.000     0.000     0.000     0.000       85        0        0        0        0        1        0    13.622       99     30.0    4.089     0.90       13        6     2064  1212_RCP45_net_15March_sandyloam.PRM
  Tot(49)       15        3     2065     60.8    605.8   1560.0   518.00    418.5     60.8      0.0     13.1      0.0    226.9       75    257.5    257.5      100     0.000     0.000     0.000     0.000       78        0        0        0        0        2        0    13.004       98     30.0    3.902     0.81        6        6     2065  1212_RCP45_net_15March_sandyloam.PRM
  Tot(50)       15        3     2066    218.8    565.6   1561.5   519.00    348.6    218.8      0.0    112.7      0.0    205.4       69    240.1    240.1      100     0.000     0.000     0.000     0.000       81        0        0        0        0        1        0    13.312       98     30.0    3.997     0.90        8        6     2066  1212_RCP45_net_15March_sandyloam.PRM
  Tot(51)       15        3     2067    119.8    565.9   1565.5   520.00    342.7    119.8      0.0     46.7      0.0    206.2       69    228.4    228.4      100     0.000     0.000     0.000     0.000       81        0        0        0        0        2        0    13.511       98     30.0    4.053     0.94        9        6     2067  1212_RCP45_net_15March_sandyloam.PRM
  Tot(52)       15        3     2068    121.8    578.0   1566.0   522.00    391.1    121.8      0.0     54.1      0.0    195.2       72    270.5    270.5      100     0.000     0.000     0.000     0.000       81        0        0        0        0        2        0    13.207       99     15.6    2.064     0.45        8        6     2068  1212_RCP45_net_15March_sandyloam.PRM
  Tot(53)       15        3     2069    162.6    539.4   1562.5   523.00    298.2    162.6      0.0     51.2      0.0    194.6       70    226.2    226.2      100     0.000     0.000     0.000     0.000       81        0        0        0        0        2        0    13.782       99     30.0    4.137     0.99        9        6     2069  1212_RCP45_net_15March_sandyloam.PRM
  Tot(54)       15        3     2070    241.0    491.2   1564.6   524.00    274.5    241.0      0.0     99.8      0.0    196.3       81    221.2    221.2      100     0.000     0.000     0.000     0.000       84        0        0        0        0        1        0    13.855       99     30.0    4.159     1.00       12        6     2070  1212_RCP45_net_15March_sandyloam.PRM
  Tot(55)       15        3     2071    167.3    576.3   1571.2   525.00    418.3    167.3      0.0     90.4      0.0    246.8       83    260.7    260.7      100     0.000     0.000     0.000     0.000       81        0        0        0        0        2        0    13.113       98     30.0    3.937     0.78        8        6     2071  1212_RCP45_net_15March_sandyloam.PRM
  Tot(56)       15        3     2072    138.6    582.6   1564.8   527.00    351.4    138.6      0.0     28.8      0.0    207.3       67    251.8    251.8      100     0.000     0.000     0.000     0.000       81        0        0        0        0        2        0    13.085       97     30.0    3.927     0.86        8        6     2072  1212_RCP45_net_15March_sandyloam.PRM
  Tot(57)       15        3     2073    141.1    585.1   1576.5   527.00    421.7    141.1      0.0     89.6      0.0    202.0       72    277.4    277.4      100     0.000     0.000     0.000     0.000       80        0        0        0        0        2        0    12.948       99     23.5    3.038     0.64        8        6     2073  1212_RCP45_net_15March_sandyloam.PRM
  Tot(58)       15        3     2074    434.8    449.9   1570.6   528.00    199.1    434.8      0.0    268.9      0.0    165.9       67    199.5    199.5      100     0.000     0.000     0.000     0.000       86        0        0        0        0        1        0    14.134       99     30.0    4.241     1.17       14        6     2074  1212_RCP45_net_15March_sandyloam.PRM
  Tot(59)       15        3     2075    353.4    531.3   1568.0   529.00    260.5    353.4      0.0    233.7      0.0    198.5       66    199.2    199.2      100     0.000     0.000     0.000     0.000       83        0        0        0        0        2        0    13.933       98     30.0    4.180     1.06       11        6     2075  1212_RCP45_net_15March_sandyloam.PRM
  Tot(60)       15        3     2076    221.3    529.4   1570.9   530.00    336.0    221.3      0.0     63.4      0.0    218.3       83    245.1    245.1      100     0.000     0.000     0.000     0.000       81        0        0        0        0        2        0    13.308       99     30.0    3.995     0.86        8        6     2076  1212_RCP45_net_15March_sandyloam.PRM
  Tot(61)       15        3     2077    241.6    536.2   1559.9   530.00    279.2    241.6      0.0    120.7      0.0    173.3       58    227.1    227.1      100     0.000     0.000     0.000     0.000       80        0        0        0        0        2        0    13.257       98     30.0    3.977     1.00        8        6     2077  1212_RCP45_net_15March_sandyloam.PRM
  Tot(62)       15        3     2078     37.6    598.0   1560.8   531.00    422.4     37.6      0.0      0.0      0.0    221.9       72    256.5    256.5      100     0.000     0.000     0.000     0.000       78        0        0        0        0        2        0    12.750       98     30.0    3.829     0.81        5        6     2078  1212_RCP45_net_15March_sandyloam.PRM
  Tot(63)       15        3     2079    119.4    550.8   1568.9   531.00    357.9    119.4      0.0     33.9      0.0    199.0       77    247.9    247.9      100     0.000     0.000     0.000     0.000       79        0        0        0        0        1        0    13.190       99     30.0    3.961     0.90        7        6     2079  1212_RCP45_net_15March_sandyloam.PRM
  Tot(64)       15        3     2080     76.4    592.2   1567.9   531.00    375.1     76.4      0.0     17.2      0.0    211.1       69    241.3    241.3      100     0.000     0.000     0.000     0.000       78        0        0        0        0        2        0    13.119       99     30.0    3.937     0.88        6        6     2080  1212_RCP45_net_15March_sandyloam.PRM
  Tot(65)       15        3     2081    133.6    600.5   1557.1   531.00    382.2    133.6      0.0     32.7      0.0    203.9       66    267.5    267.5      100     0.000     0.000     0.000     0.000       79        0        0        0        0        3        0    12.709       98     30.0    3.815     0.81        5        6     2081  1212_RCP45_net_15March_sandyloam.PRM
  Tot(66)       15        3     2082    119.1    567.7   1559.0   531.00    327.5    119.1      0.0     35.3      0.0    200.0       70    229.8    229.8      100     0.000     0.000     0.000     0.000       79        0        0        0        0        2        0    13.488       99     30.0    4.047     0.95        6        6     2082  1212_RCP45_net_15March_sandyloam.PRM
  Tot(67)       15        3     2083     16.2    635.5   1567.7   532.00    462.3     16.2      0.0      0.0      0.0    224.5       71    273.2    273.2      100     0.000     0.000     0.000     0.000       76        0        0        0        0        3        0    12.451       97     30.0    3.740     0.76        3        6     2083  1212_RCP45_net_15March_sandyloam.PRM
  Tot(68)       15        3     2084    185.9    583.3   1571.5   532.00    379.9    185.9      0.0    126.5      0.0    177.5       57    261.6    261.6      100     0.000     0.000     0.000     0.000       79        0        0        0        0        2        0    12.596       98      5.7    0.718     0.16        7        6     2084  1212_RCP45_net_15March_sandyloam.PRM
  Tot(69)       15        3     2085    147.8    585.5   1558.2   532.00    412.5    147.8      0.0     86.9      0.0    224.0       73    251.6    251.6      100     0.000     0.000     0.000     0.000       77        0        0        0        0        2        0    12.678       98     30.0    3.806     0.81        5        6     2085  1212_RCP45_net_15March_sandyloam.PRM
  Tot(70)       15        3     2086    149.0    600.0   1568.4   532.00    441.5    149.0      0.0    103.4      0.0    221.6       72    259.5    259.5      100     0.000     0.000     0.000     0.000       77        0        0        0        0        2        0    12.254       97     30.0    3.678     0.77        4        6     2086  1212_RCP45_net_15March_sandyloam.PRM
  Tot(71)       15        3     2087     79.5    552.6   1567.1   533.00    388.2     79.5      0.0     17.0      0.0    214.8       76    244.4    244.4      100     0.000     0.000     0.000     0.000       79        0        0        0        0        2        0    12.838       99     30.0    3.856     0.84        6        6     2087  1212_RCP45_net_15March_sandyloam.PRM
  Tot(72)       15        3     2088    103.6    615.0   1557.8   533.00    463.6    103.6      0.0     52.0      0.0    215.1       72    290.0    290.0      100     0.000     0.000     0.000     0.000       78        0        0        0        0        3        0    12.328       98     21.0    2.589     0.52        5        6     2088  1212_RCP45_net_15March_sandyloam.PRM
  Tot(73)       15        3     2089     37.4    582.6   1571.3   533.00    402.8     37.4      0.0      0.0      0.0    214.2       73    245.1    245.1      100     0.000     0.000     0.000     0.000       77        0        0        0        0        2        0    12.729       98     30.0    3.821     0.84        4        6     2089  1212_RCP45_net_15March_sandyloam.PRM
  Tot(74)       15        3     2090    307.8    512.9   1571.8   534.00    334.4    307.8      0.0    195.7      0.0    186.2       66    224.5    224.5      100     0.000     0.000     0.000     0.000       82        0        0        0        0        2        0    13.194       98     30.0    3.961     0.97        9        6     2090  1212_RCP45_net_15March_sandyloam.PRM
  Tot(75)       15        3     2091    166.3    590.6   1561.5   534.00    434.3    166.3      0.0    121.0      0.0    199.6       67    269.1    269.1      100     0.000     0.000     0.000     0.000       78        0        0        0        0        2        0    12.332       98     15.7    1.940     0.42        6        6     2091  1212_RCP45_net_15March_sandyloam.PRM
  Tot(76)       15        3     2092    492.0    432.9   1563.2   535.00    208.4    492.0      0.0    315.6      0.0    188.9       77    185.4    185.4      100     0.000     0.000     0.000     0.000       85        0        0        0        0        1        0    14.021       99     30.0    4.207     1.13       12        6     2092  1212_RCP45_net_15March_sandyloam.PRM
  Tot(77)       15        3     2093     88.0    612.2   1574.4   535.00    360.6     88.0      0.0     12.8      0.0    191.7       61    255.8    255.8      100     0.000     0.000     0.000     0.000       77        0        0        0        0        2        0    12.750       98     14.1    1.798     0.41        5        6     2093  1212_RCP45_net_15March_sandyloam.PRM
  Tot(78)       15        3     2094    202.0    539.8   1562.5   535.00    330.3    202.0      0.0     61.7      0.0    215.0       77    234.8    234.8      100     0.000     0.000     0.000     0.000       79        0        0        0        0        1        0    13.131       99     30.0    3.940     0.88        6        6     2094  1212_RCP45_net_15March_sandyloam.PRM
  Tot(79)       15        3     2095     30.4    600.5   1569.0   536.00    454.4     30.4      0.0      0.0      0.0    243.4       83    260.2    260.2      100     0.000     0.000     0.000     0.000       77        0        0        0        0        2        0    12.573       99     16.5    2.072     0.41        5        6     2095  1212_RCP45_net_15March_sandyloam.PRM
  Tot(80)       15        3     2096    151.9    583.6   1558.3   536.00    343.3    151.9      0.0     77.4      0.0    182.1       61    254.7    254.7      100     0.000     0.000     0.000     0.000       76        0        0        0        0        2        0    12.584       98      9.7    1.218     0.28        4        6     2096  1212_RCP45_net_15March_sandyloam.PRM
  Tot(81)       15        3     2097     91.8    594.7   1563.7   537.00    399.2     91.8      0.0      6.9      0.0    212.0       70    255.9    255.9      100     0.000     0.000     0.000     0.000       78        0        0        0        0        2        0    12.706       98     30.0    3.814     0.82        5        6     2097  1212_RCP45_net_15March_sandyloam.PRM
  Tot(82)       15        3     2098     60.5    611.3   1557.2   537.00    412.9     60.5      0.0      4.9      0.0    217.7       70    263.3    263.3      100     0.000     0.000     0.000     0.000       77        0        0        0        0        3        0    12.681       97     30.0    3.806     0.79        3        6     2098  1212_RCP45_net_15March_sandyloam.PRM
  Tot(83)       15        3     2099    133.1    565.3   1568.8   538.00    342.4    133.1      0.0     20.3      0.0    202.0       71    239.6    239.6      100     0.000     0.000     0.000     0.000       78        0        0        0        0        1        0    13.094       98     30.0    3.930     0.89        5        6     2099  1212_RCP45_net_15March_sandyloam.PRM
