AquaCrop 6.0 (March 2017) - Output created on (date) : 07/06/2021   at (time) : 20:09:31

    RunNr     Day1   Month1    Year1     Rain      ETo       GD     CO2      Irri   Infilt   Runoff    Drain   Upflow        E     E/Ex       Tr      TrW   Tr/Trx    SaltIn   SaltOut    SaltUp  SaltProf     Cycle   SaltStr  FertStr  WeedStr  TempStr   ExpStr   StoStr  BioMass  Brelative   HI     Yield     WPet     DayN   MonthN    YearN
                                           mm       mm    °C.day    ppm        mm       mm       mm       mm       mm       mm        %       mm       mm        %    ton/ha    ton/ha    ton/ha    ton/ha      days       %        %        %        %        %        %    ton/ha        %       %    ton/ha    kg/m3
   Tot(1)       15        3     2017      8.4    661.7   1576.4   404.00      0.0      8.4      0.0      0.0      0.0     35.1        6     64.4     64.4       87     0.000     0.000     0.000     0.000       76        0        0        0        0       56       14     2.853       22     23.6    0.674     0.68       11        6     2017  1212_RCP45_rainfed_15March_sandyloam.PRM
   Tot(2)       15        3     2018    197.1    584.6   1573.9   407.00      0.0    197.1      0.0      0.0      0.0     84.8       22    146.0    146.0       79     0.000     0.000     0.000     0.000       85        0        0        0        0       31       11     7.624       56     29.5    2.250     0.99       14        6     2018  1212_RCP45_rainfed_15March_sandyloam.PRM
   Tot(3)       15        3     2019     20.1    656.9   1562.2   409.00      0.0     20.1      0.0      0.0      0.0     42.7        8     72.9     72.9       80     0.000     0.000     0.000     0.000       67        0        0        0        0       50       17     3.252       25     16.3    0.530     0.47        9        6     2019  1212_RCP45_rainfed_15March_sandyloam.PRM
   Tot(4)       15        3     2020    129.7    624.5   1566.7   411.00      0.0    129.7      0.0      0.0      0.0     77.1       15     72.9     72.9       75     0.000     0.000     0.000     0.000       66        0        0        0        0       49       19     3.547       27     15.0    0.533     0.47       12        6     2020  1212_RCP45_rainfed_15March_sandyloam.PRM
   Tot(5)       15        3     2021    378.1    450.6   1570.6   413.00      0.0    378.1      0.0    144.4      0.0     88.9       31    136.6    136.6       83     0.000     0.000     0.000     0.000       89        0        0        0        1       31        9     9.512       68     30.3    2.880     1.28       17        6     2021  1212_RCP45_rainfed_15March_sandyloam.PRM
   Tot(6)       15        3     2022    154.3    563.5   1559.3   416.00      0.0    154.3      0.0      0.0      0.0     93.3       24    145.1    145.1       81     0.000     0.000     0.000     0.000       84        0        0        0        0       39       12     7.824       57     30.3    2.369     1.01       12        6     2022  1212_RCP45_rainfed_15March_sandyloam.PRM
   Tot(7)       15        3     2023    213.4    530.6   1572.4   418.00      0.0    213.4      0.0     34.5      0.0    103.2       23     68.6     68.6       80     0.000     0.000     0.000     0.000       86        0        0        0        0       49       14     3.555       26     30.7    1.093     0.65       15        6     2023  1212_RCP45_rainfed_15March_sandyloam.PRM
   Tot(8)       15        3     2024     46.4    611.8   1567.0   420.00      0.0     46.4      0.0      0.0      0.0     70.6       14     69.3     69.3       77     0.000     0.000     0.000     0.000       69        0        0        0        1       50       18     3.528       26     17.3    0.609     0.52       12        6     2024  1212_RCP45_rainfed_15March_sandyloam.PRM
   Tot(9)       15        3     2025     14.3    715.7   1571.2   423.00      0.0     14.3      0.0      0.0      0.0     39.6        6     61.3     61.3       81     0.000     0.000     0.000     0.000       66        0        0        0        0       56       17     2.468       18     13.3    0.329     0.38       10        6     2025  1212_RCP45_rainfed_15March_sandyloam.PRM
  Tot(10)       15        3     2026    125.1    581.9   1569.9   425.00      0.0    125.1      0.0      0.0      0.0    121.2       25     74.2     74.2       83     0.000     0.000     0.000     0.000       84        0        0        0        0       52        8     3.656       27     30.7    1.124     0.58       12        6     2026  1212_RCP45_rainfed_15March_sandyloam.PRM
  Tot(11)       15        3     2027     25.8    649.3   1569.6   428.00      0.0     25.8      0.0      0.0      0.0     44.8        8     85.6     85.6       78     0.000     0.000     0.000     0.000       74        0        0        0        0       49       21     3.900       30     28.0    1.090     0.85        7        6     2027  1212_RCP45_rainfed_15March_sandyloam.PRM
  Tot(12)       15        3     2028    146.8    549.9   1568.5   430.00      0.0    146.8      0.0      0.0      0.0    107.1       29    128.6    128.6       76     0.000     0.000     0.000     0.000       86        0        0        0        0       36       14     7.534       54     30.4    2.291     0.98       15        6     2028  1212_RCP45_rainfed_15March_sandyloam.PRM
  Tot(13)       15        3     2029     25.7    601.1   1564.5   433.00      0.0     25.7      0.0      0.0      0.0     48.8       10     65.6     65.6       78     0.000     0.000     0.000     0.000       66        0        0        0        0       50       18     3.198       24     15.4    0.491     0.47        9        6     2029  1212_RCP45_rainfed_15March_sandyloam.PRM
  Tot(14)       15        3     2030    104.8    558.6   1572.1   435.00      0.0    104.8      0.0      0.0      0.0    100.5       24    102.2    102.2       82     0.000     0.000     0.000     0.000       84        0        0        0        0       46       11     5.655       41     30.6    1.730     0.86       12        6     2030  1212_RCP45_rainfed_15March_sandyloam.PRM
  Tot(15)       15        3     2031     67.0    604.6   1577.8   438.00      0.0     67.0      0.0      0.0      0.0     72.6       16    105.5    105.5       73     0.000     0.000     0.000     0.000       77        0        0        0        0       42       23     5.715       42     26.0    1.485     0.84       10        6     2031  1212_RCP45_rainfed_15March_sandyloam.PRM
  Tot(16)       15        3     2032     28.1    602.0   1565.1   440.00      0.0     28.1      0.0      0.0      0.0     54.2       10     71.8     71.8       85     0.000     0.000     0.000     0.000       72        0        0        0        0       53       15     3.744       28     24.5    0.919     0.74        9        6     2032  1212_RCP45_rainfed_15March_sandyloam.PRM
  Tot(17)       15        3     2033    186.0    590.5   1561.0   443.00      0.0    186.0      0.0      0.0      0.0     89.5       20    105.1    105.1       80     0.000     0.000     0.000     0.000       81        0        0        0        0       46       16     5.219       39     30.4    1.584     0.84       10        6     2033  1212_RCP45_rainfed_15March_sandyloam.PRM
  Tot(18)       15        3     2034    171.6    518.8   1566.3   445.00      0.0    171.6      0.0      0.0      0.0    108.8       26     72.6     72.6       82     0.000     0.000     0.000     0.000       84        0        0        0        0       48       12     4.306       32     30.7    1.322     0.75       12        6     2034  1212_RCP45_rainfed_15March_sandyloam.PRM
  Tot(19)       15        3     2035     99.1    556.0   1561.7   448.00      0.0     99.1      0.0      0.0      0.0     84.6       21    105.1    105.1       74     0.000     0.000     0.000     0.000       81        0        0        0        0       41       22     5.505       41     29.7    1.635     0.87        9        6     2035  1212_RCP45_rainfed_15March_sandyloam.PRM
  Tot(20)       15        3     2036    126.4    568.8   1570.5   450.00      0.0    126.4      0.0      0.0      0.0     81.7       22    149.2    149.2       85     0.000     0.000     0.000     0.000       82        0        0        0        0       32       16     8.669       64     29.9    2.592     1.13       10        6     2036  1212_RCP45_rainfed_15March_sandyloam.PRM
  Tot(21)       15        3     2037     83.5    547.1   1562.7   453.00      0.0     83.5      0.0      0.0      0.0     71.1       17     82.0     82.0       74     0.000     0.000     0.000     0.000       64        0        0        0        0       45       22     4.404       33     12.9    0.567     0.41       10        6     2037  1212_RCP45_rainfed_15March_sandyloam.PRM
  Tot(22)       15        3     2038    138.7    570.9   1557.1   456.00      0.0    138.7      0.0      0.0      0.0    115.9       28    110.4    110.4       80     0.000     0.000     0.000     0.000       84        0        0        0        0       43       13     6.014       43     30.6    1.840     0.81       11        6     2038  1212_RCP45_rainfed_15March_sandyloam.PRM
  Tot(23)       15        3     2039    129.5    495.9   1560.4   458.00      0.0    129.5      0.0      0.0      0.0    122.1       31     84.0     84.0       85     0.000     0.000     0.000     0.000       84        0        0        0        0       50        8     5.010       36     31.0    1.551     0.76       12        6     2039  1212_RCP45_rainfed_15March_sandyloam.PRM
  Tot(24)       15        3     2040     45.6    574.1   1560.2   461.00      0.0     45.6      0.0      0.0      0.0     54.2       13     93.6     93.6       75     0.000     0.000     0.000     0.000       80        0        0        0        0       44       21     5.150       39     30.0    1.545     1.05        8        6     2040  1212_RCP45_rainfed_15March_sandyloam.PRM
  Tot(25)       15        3     2041     13.7    661.7   1561.5   463.00      0.0     13.7      0.0      0.0      0.0     42.4        7     60.8     60.8       85     0.000     0.000     0.000     0.000       75        0        0        0        0       54       14     2.676       20     23.5    0.630     0.61        9        6     2041  1212_RCP45_rainfed_15March_sandyloam.PRM
  Tot(26)       15        3     2042     40.3    595.5   1577.1   466.00      0.0     40.3      0.0      0.0      0.0     63.3       13     80.3     80.3       80     0.000     0.000     0.000     0.000       70        0        0        0        0       47       19     4.721       35     20.2    0.952     0.67       10        6     2042  1212_RCP45_rainfed_15March_sandyloam.PRM
  Tot(27)       15        3     2043    136.7    611.5   1565.4   469.00      0.0    136.7      0.0      0.0      0.0     87.9       17     64.8     64.8       78     0.000     0.000     0.000     0.000       65        0        0        0        0       50       18     3.013       23     13.2    0.399     0.37       10        6     2043  1212_RCP45_rainfed_15March_sandyloam.PRM
  Tot(28)       15        3     2044    154.5    584.3   1572.9   471.00      0.0    154.5      0.0      0.0      0.0     78.9       17     75.4     75.4       74     0.000     0.000     0.000     0.000       65        0        0        0        0       47       20     4.034       31     14.9    0.600     0.48        9        6     2044  1212_RCP45_rainfed_15March_sandyloam.PRM
  Tot(29)       15        3     2045    278.4    479.6   1564.0   474.00      0.0    278.4      0.0     79.3      0.0    108.7       44    188.2    188.2       94     0.000     0.000     0.000     0.000       85        0        0        0        0        7        8    12.907       90     30.2    3.901     1.33       12        6     2045  1212_RCP45_rainfed_15March_sandyloam.PRM
  Tot(30)       15        3     2046    201.6    548.8   1559.1   476.00      0.0    201.6      0.0      0.0      0.0     94.2       23    104.4    104.4       76     0.000     0.000     0.000     0.000       85        0        0        0        1       40       17     5.766       42     29.9    1.723     0.87       13        6     2046  1212_RCP45_rainfed_15March_sandyloam.PRM
  Tot(31)       15        3     2047    277.2    521.5   1557.2   479.00      0.0    277.2      0.0     60.6      0.0     81.7       23    113.3    113.3       73     0.000     0.000     0.000     0.000       84        0        0        0        0       37       15     6.425       48     29.9    1.918     0.98       11        6     2047  1212_RCP45_rainfed_15March_sandyloam.PRM
  Tot(32)       15        3     2048     71.5    570.3   1558.2   481.00      0.0     71.5      0.0      0.0      0.0     86.4       20     81.8     81.8       75     0.000     0.000     0.000     0.000       64        0        0        0        0       46       20     3.937       29     16.0    0.631     0.43        8        6     2048  1212_RCP45_rainfed_15March_sandyloam.PRM
  Tot(33)       15        3     2049     25.5    613.2   1568.9   484.00      0.0     25.5      0.0      0.0      0.0     53.0       10     70.8     70.8       83     0.000     0.000     0.000     0.000       70        0        0        0        0       53       17     3.817       28     21.4    0.815     0.66        8        6     2049  1212_RCP45_rainfed_15March_sandyloam.PRM
  Tot(34)       15        3     2050    202.2    531.7   1565.1   487.00      0.0    202.2      0.0     25.4      0.0     90.9       29    167.0    167.0       88     0.000     0.000     0.000     0.000       83        0        0        0        0       19        9    10.735       77     30.5    3.278     1.28       10        6     2050  1212_RCP45_rainfed_15March_sandyloam.PRM
  Tot(35)       15        3     2051     80.0    630.7   1575.7   489.00      0.0     80.0      0.0      0.0      0.0     68.6       14    113.9    113.9       79     0.000     0.000     0.000     0.000       80        0        0        0        0       46       21     5.157       39     30.2    1.560     0.86        8        6     2051  1212_RCP45_rainfed_15March_sandyloam.PRM
  Tot(36)       15        3     2052     94.7    592.2   1565.3   492.00      0.0     94.7      0.0     49.0      0.0     67.5       14     71.8     71.8       81     0.000     0.000     0.000     0.000       64        0        0        0        0       49       18     3.744       29     15.2    0.569     0.43        8        6     2052  1212_RCP45_rainfed_15March_sandyloam.PRM
  Tot(37)       15        3     2053    254.7    564.7   1566.7   494.00      0.0    254.7      0.0     91.9      0.0    102.7       22     67.5     67.5       80     0.000     0.000     0.000     0.000       83        0        0        0        0       51       12     3.356       25     30.8    1.033     0.62       11        6     2053  1212_RCP45_rainfed_15March_sandyloam.PRM
  Tot(38)       15        3     2054     61.7    600.3   1570.7   496.00      0.0     61.7      0.0      0.0      0.0     66.0       15     99.9     99.9       76     0.000     0.000     0.000     0.000       67        0        0        0        0       40       20     5.323       40     21.8    1.158     0.71        6        6     2054  1212_RCP45_rainfed_15March_sandyloam.PRM
  Tot(39)       15        3     2055    173.3    559.3   1565.6   498.00      0.0    173.3      0.0      0.0      0.0    111.5       25    101.9    101.9       87     0.000     0.000     0.000     0.000       82        0        0        0        0       47        7     5.826       42     30.5    1.775     0.84       10        6     2055  1212_RCP45_rainfed_15March_sandyloam.PRM
  Tot(40)       15        3     2056     97.0    546.1   1568.9   501.00      0.0     97.0      0.0      0.0      0.0     92.2       20     67.6     67.6       81     0.000     0.000     0.000     0.000       80        0        0        0        0       52       12     3.454       25     30.9    1.066     0.67        7        6     2056  1212_RCP45_rainfed_15March_sandyloam.PRM
  Tot(41)       15        3     2057     48.1    614.0   1577.7   503.00      0.0     48.1      0.0      0.0      0.0     60.3       11     86.2     86.2       86     0.000     0.000     0.000     0.000       80        0        0        0        0       49       15     4.100       31     30.3    1.242     0.85        8        6     2057  1212_RCP45_rainfed_15March_sandyloam.PRM
  Tot(42)       15        3     2058    205.5    528.1   1563.0   505.00      0.0    205.5      0.0      0.0      0.0    117.7       29     87.0     87.0       78     0.000     0.000     0.000     0.000       82        0        0        0        0       47       15     4.812       35     30.5    1.467     0.72       11        6     2058  1212_RCP45_rainfed_15March_sandyloam.PRM
  Tot(43)       15        3     2059    483.2    515.9   1563.6   507.00      0.0    483.2      0.0    224.0      0.0     93.0       30    176.0    176.0       95     0.000     0.000     0.000     0.000       84        0        0        0        0       21        2    11.304       79     30.8    3.481     1.31       12        6     2059  1212_RCP45_rainfed_15March_sandyloam.PRM
  Tot(44)       15        3     2060     74.0    548.9   1563.7   509.00      0.0     74.0      0.0      0.0      0.0     90.8       20     67.3     67.3       83     0.000     0.000     0.000     0.000       78        0        0        0        0       53       13     3.253       25     30.8    1.000     0.63        6        6     2060  1212_RCP45_rainfed_15March_sandyloam.PRM
  Tot(45)       15        3     2061    131.5    567.3   1564.8   511.00      0.0    131.5      0.0     53.0      0.0     86.2       22     87.7     87.7       76     0.000     0.000     0.000     0.000       81        0        0        0        0       44       22     4.797       36     30.5    1.464     0.84        9        6     2061  1212_RCP45_rainfed_15March_sandyloam.PRM
  Tot(46)       15        3     2062     64.2    603.1   1562.8   513.00      0.0     64.2      0.0      0.0      0.0     72.2       14     68.7     68.7       80     0.000     0.000     0.000     0.000       66        0        0        0        0       51       18     3.377       25     15.2    0.514     0.47        8        6     2062  1212_RCP45_rainfed_15March_sandyloam.PRM
  Tot(47)       15        3     2063     91.3    586.4   1559.6   514.00      0.0     91.3      0.0      0.0      0.0     74.4       16     76.0     76.0       75     0.000     0.000     0.000     0.000       62        0        0        0        0       46       21     3.766       29     12.1    0.456     0.35        6        6     2063  1212_RCP45_rainfed_15March_sandyloam.PRM
  Tot(48)       15        3     2064    161.9    574.6   1576.8   516.00      0.0    161.9      0.0      0.0      0.0    121.2       30    109.5    109.5       75     0.000     0.000     0.000     0.000       85        0        0        0        0       40       14     6.187       45     30.5    1.889     0.82       13        6     2064  1212_RCP45_rainfed_15March_sandyloam.PRM
  Tot(49)       15        3     2065     60.8    605.8   1560.0   518.00      0.0     60.8      0.0      0.0      0.0     65.0       13     92.4     92.4       86     0.000     0.000     0.000     0.000       78        0        0        0        0       49       14     4.718       36     30.2    1.424     0.91        6        6     2065  1212_RCP45_rainfed_15March_sandyloam.PRM
  Tot(50)       15        3     2066    218.8    565.6   1561.5   519.00      0.0    218.8      0.0      0.0      0.0     71.7       21    146.8    146.8       77     0.000     0.000     0.000     0.000       81        0        0        0        0       21       19     8.470       62     28.3    2.395     1.10        8        6     2066  1212_RCP45_rainfed_15March_sandyloam.PRM
  Tot(51)       15        3     2067    119.8    565.9   1565.5   520.00      0.0    119.8      0.0      0.0      0.0     78.1       17    103.2    103.2       91     0.000     0.000     0.000     0.000       81        0        0        0        0       44        5     6.468       47     30.1    1.945     1.07        9        6     2067  1212_RCP45_rainfed_15March_sandyloam.PRM
  Tot(52)       15        3     2068    121.8    578.0   1566.0   522.00      0.0    121.8      0.0     11.7      0.0     90.5       20     78.3     78.3       75     0.000     0.000     0.000     0.000       81        0        0        0        0       45       16     3.954       30     12.2    0.483     0.29        8        6     2068  1212_RCP45_rainfed_15March_sandyloam.PRM
  Tot(53)       15        3     2069    162.6    539.4   1562.5   523.00      0.0    162.6      0.0      8.8      0.0    107.1       31    108.7    108.7       76     0.000     0.000     0.000     0.000       81        0        0        0        0       38       10     6.548       47     30.6    2.007     0.95        9        6     2069  1212_RCP45_rainfed_15March_sandyloam.PRM
  Tot(54)       15        3     2070    241.0    491.2   1564.6   524.00      0.0    241.0      0.0     60.9      0.0    122.8       47    152.6    152.6       80     0.000     0.000     0.000     0.000       84        0        0        0        0       17       16     9.857       70     29.9    2.949     1.08       12        6     2070  1212_RCP45_rainfed_15March_sandyloam.PRM
  Tot(55)       15        3     2071    167.3    576.3   1571.2   525.00      0.0    167.3      0.0      2.4      0.0     94.0       21     87.1     87.1       78     0.000     0.000     0.000     0.000       81        0        0        0        0       48       13     4.091       31     30.4    1.246     0.69        8        6     2071  1212_RCP45_rainfed_15March_sandyloam.PRM
  Tot(56)       15        3     2072    138.6    582.6   1564.8   527.00      0.0    138.6      0.0      0.0      0.0     99.0       21    102.2    102.2       84     0.000     0.000     0.000     0.000       81        0        0        0        0       45       10     5.403       40     30.4    1.641     0.83        8        6     2072  1212_RCP45_rainfed_15March_sandyloam.PRM
  Tot(57)       15        3     2073    141.1    585.1   1576.5   527.00      0.0    141.1      0.0      0.0      0.0     85.7       17     65.4     65.4       84     0.000     0.000     0.000     0.000       63        0        0        0        0       52       16     3.208       24     14.3    0.458     0.41        8        6     2073  1212_RCP45_rainfed_15March_sandyloam.PRM
  Tot(58)       15        3     2074    434.8    449.9   1570.6   528.00      0.0    434.8      0.0    177.9      0.0     98.3       34    159.3    159.3       98     0.000     0.000     0.000     0.000       86        0        0        0        0       25        1    11.461       80     30.0    3.443     1.35       14        6     2074  1212_RCP45_rainfed_15March_sandyloam.PRM
  Tot(59)       15        3     2075    353.4    531.3   1568.0   529.00      0.0    353.4      0.0    173.9      0.0     82.2       21    128.2    128.2       99     0.000     0.000     0.000     0.000       83        0        0        0        0       28        0     9.701       68     30.0    2.910     1.39       11        6     2075  1212_RCP45_rainfed_15March_sandyloam.PRM
  Tot(60)       15        3     2076    221.3    529.4   1570.9   530.00      0.0    221.3      0.0      0.0      0.0    121.5       32     90.6     90.6       77     0.000     0.000     0.000     0.000       81        0        0        0        0       44       11     4.477       33     30.8    1.377     0.65        8        6     2076  1212_RCP45_rainfed_15March_sandyloam.PRM
  Tot(61)       15        3     2077    241.6    536.2   1559.9   530.00      0.0    241.6      0.0     14.0      0.0     98.4       25    130.5    130.5       91     0.000     0.000     0.000     0.000       80        0        0        0        0       38        4     7.858       58     30.2    2.372     1.05        8        6     2077  1212_RCP45_rainfed_15March_sandyloam.PRM
  Tot(62)       15        3     2078     37.6    598.0   1560.8   531.00      0.0     37.6      0.0      0.0      0.0     59.9       11     69.6     69.6       88     0.000     0.000     0.000     0.000       78        0        0        0        0       53       14     3.512       27     29.6    1.040     0.80        5        6     2078  1212_RCP45_rainfed_15March_sandyloam.PRM
  Tot(63)       15        3     2079    119.4    550.8   1568.9   531.00      0.0    119.4      0.0      4.1      0.0     81.2       25    135.6    135.6       76     0.000     0.000     0.000     0.000       74        0        0        0        0       29       23     7.770       58     26.5    2.060     1.01        7        6     2079  1212_RCP45_rainfed_15March_sandyloam.PRM
  Tot(64)       15        3     2080     76.4    592.2   1567.9   531.00      0.0     76.4      0.0      0.0      0.0     70.9       17    113.9    113.9       81     0.000     0.000     0.000     0.000       72        0        0        0        0       41       19     6.347       48     25.8    1.637     0.89        6        6     2080  1212_RCP45_rainfed_15March_sandyloam.PRM
  Tot(65)       15        3     2081    133.6    600.5   1557.1   531.00      0.0    133.6      0.0      0.0      0.0    102.6       20     81.6     81.6       89     0.000     0.000     0.000     0.000       79        0        0        0        0       53        6     3.916       30     30.7    1.201     0.65        5        6     2081  1212_RCP45_rainfed_15March_sandyloam.PRM
  Tot(66)       15        3     2082    119.1    567.7   1559.0   531.00      0.0    119.1      0.0      0.0      0.0     64.2       18    150.0    150.0       86     0.000     0.000     0.000     0.000       79        0        0        0        0       33       12     8.879       65     30.3    2.693     1.26        6        6     2082  1212_RCP45_rainfed_15March_sandyloam.PRM
  Tot(67)       15        3     2083     16.2    635.5   1567.7   532.00      0.0     16.2      0.0      0.0      0.0     44.5        8     65.2     65.2       84     0.000     0.000     0.000     0.000       65        0        0        0        0       54       16     3.051       24     19.3    0.590     0.58        3        6     2083  1212_RCP45_rainfed_15March_sandyloam.PRM
  Tot(68)       15        3     2084    185.9    583.3   1571.5   532.00      0.0    185.9      0.0      5.3      0.0     70.7       18    115.1    115.1       73     0.000     0.000     0.000     0.000       79        0        0        0        0       32       19     6.034       47      5.5    0.334     0.18        7        6     2084  1212_RCP45_rainfed_15March_sandyloam.PRM
  Tot(69)       15        3     2085    147.8    585.5   1558.2   532.00      0.0    147.8      0.0      0.0      0.0     86.9       17     78.8     78.8       83     0.000     0.000     0.000     0.000       69        0        0        0        0       51       17     4.149       32     23.1    0.957     0.72        5        6     2085  1212_RCP45_rainfed_15March_sandyloam.PRM
  Tot(70)       15        3     2086    149.0    600.0   1568.4   532.00      0.0    149.0      0.0     18.1      0.0     59.7       11     67.1     67.1       86     0.000     0.000     0.000     0.000       67        0        0        0        0       53       15     3.285       26     22.4    0.735     0.68        4        6     2086  1212_RCP45_rainfed_15March_sandyloam.PRM
  Tot(71)       15        3     2087     79.5    552.6   1567.1   533.00      0.0     79.5      0.0      0.0      0.0     91.2       20     69.6     69.6       79     0.000     0.000     0.000     0.000       80        0        0        0        0       50       17     3.638       28     17.2    0.627     0.39        6        6     2087  1212_RCP45_rainfed_15March_sandyloam.PRM
  Tot(72)       15        3     2088    103.6    615.0   1557.8   533.00      0.0    103.6      0.0      0.0      0.0     62.6       11     60.4     60.4       85     0.000     0.000     0.000     0.000       65        0        0        0        0       54       15     2.593       21     17.4    0.452     0.47        5        6     2088  1212_RCP45_rainfed_15March_sandyloam.PRM
  Tot(73)       15        3     2089     37.4    582.6   1571.3   533.00      0.0     37.4      0.0      0.0      0.0     61.7       12     73.6     73.6       84     0.000     0.000     0.000     0.000       69        0        0        0        0       49       16     3.950       31     22.4    0.884     0.66        4        6     2089  1212_RCP45_rainfed_15March_sandyloam.PRM
  Tot(74)       15        3     2090    307.8    512.9   1571.8   534.00      0.0    307.8      0.0    105.8      0.0     94.7       23     71.7     71.7       80     0.000     0.000     0.000     0.000       82        0        0        0        0       48       10     3.906       29     30.6    1.195     0.72        9        6     2090  1212_RCP45_rainfed_15March_sandyloam.PRM
  Tot(75)       15        3     2091    166.3    590.6   1561.5   534.00      0.0    166.3      0.0     27.3      0.0     63.9       12     64.6     64.6       84     0.000     0.000     0.000     0.000       79        0        0        0        0       52       14     3.046       24     16.0    0.489     0.38        6        6     2091  1212_RCP45_rainfed_15March_sandyloam.PRM
  Tot(76)       15        3     2092    492.0    432.9   1563.2   535.00      0.0    492.0      0.0    241.5      0.0     99.8       34    140.3    140.3       99     0.000     0.000     0.000     0.000       85        0        0        0        0       29        0    11.138       78     30.5    3.403     1.42       12        6     2092  1212_RCP45_rainfed_15March_sandyloam.PRM
  Tot(77)       15        3     2093     88.0    612.2   1574.4   535.00      0.0     88.0      0.0      0.0      0.0     77.5       19    111.3    111.3       72     0.000     0.000     0.000     0.000       77        0        0        0        0       33       25     5.895       45     11.6    0.687     0.37        5        6     2093  1212_RCP45_rainfed_15March_sandyloam.PRM
  Tot(78)       15        3     2094    202.0    539.8   1562.5   535.00      0.0    202.0      0.0      0.0      0.0     91.6       28    146.8    146.8       78     0.000     0.000     0.000     0.000       79        0        0        0        0       24       13     8.582       64     29.5    2.531     1.07        6        6     2094  1212_RCP45_rainfed_15March_sandyloam.PRM
  Tot(79)       15        3     2095     30.4    600.5   1569.0   536.00      0.0     30.4      0.0      0.0      0.0     56.7       12     74.0     74.0       78     0.000     0.000     0.000     0.000       63        0        0        0        0       48       18     3.998       31     16.0    0.639     0.55        5        6     2095  1212_RCP45_rainfed_15March_sandyloam.PRM
  Tot(80)       15        3     2096    151.9    583.6   1558.3   536.00      0.0    151.9      0.0      7.1      0.0     71.6       19    161.8    161.8       87     0.000     0.000     0.000     0.000       76        0        0        0        0       28        8     8.141       64      9.8    0.794     0.34        4        6     2096  1212_RCP45_rainfed_15March_sandyloam.PRM
  Tot(81)       15        3     2097     91.8    594.7   1563.7   537.00      0.0     91.8      0.0      0.0      0.0     71.6       16     92.5     92.5       74     0.000     0.000     0.000     0.000       72        0        0        0        0       46       22     4.918       38     25.6    1.258     0.82        5        6     2097  1212_RCP45_rainfed_15March_sandyloam.PRM
  Tot(82)       15        3     2098     60.5    611.3   1557.2   537.00      0.0     60.5      0.0      0.0      0.0     77.4       14     65.4     65.4       86     0.000     0.000     0.000     0.000       77        0        0        0        0       57       10     2.968       23     30.8    0.915     0.64        3        6     2098  1212_RCP45_rainfed_15March_sandyloam.PRM
  Tot(83)       15        3     2099    133.1    565.3   1568.8   538.00      0.0    133.1      0.0      0.0      0.0     87.7       20    100.8    100.8       81     0.000     0.000     0.000     0.000       78        0        0        0        0       48       19     5.525       42     30.4    1.677     0.89        5        6     2099  1212_RCP45_rainfed_15March_sandyloam.PRM
