AquaCrop 6.0 (March 2017) - Output created on (date) : 07/06/2021   at (time) : 20:14:27

    RunNr     Day1   Month1    Year1     Rain      ETo       GD     CO2      Irri   Infilt   Runoff    Drain   Upflow        E     E/Ex       Tr      TrW   Tr/Trx    SaltIn   SaltOut    SaltUp  SaltProf     Cycle   SaltStr  FertStr  WeedStr  TempStr   ExpStr   StoStr  BioMass  Brelative   HI     Yield     WPet     DayN   MonthN    YearN
                                           mm       mm    °C.day    ppm        mm       mm       mm       mm       mm       mm        %       mm       mm        %    ton/ha    ton/ha    ton/ha    ton/ha      days       %        %        %        %        %        %    ton/ha        %       %    ton/ha    kg/m3
   Tot(1)       15        4     2017    854.3    420.6   1557.0   407.00      0.0    854.3      0.0    533.6      0.0    109.2       41    165.4    165.4      100     0.000     0.000     0.000     0.000       87        0        0        0        0        9        0    13.373       94     30.0    4.012     1.46       14        7     2017  1212_RCP85_rainfed_15April_sandyloam.PRM
   Tot(2)       15        4     2018    981.1    446.2   1558.4   410.00      0.0    981.1      0.0    811.5      0.0     84.3       22     77.9     77.9       93     0.000     0.000     0.000     0.000       86        0        0        0        1       47        3     5.852       42     30.3    1.776     1.10       15        7     2018  1212_RCP85_rainfed_15April_sandyloam.PRM
   Tot(3)       15        4     2019    111.1    596.6   1573.5   413.00      0.0    111.1      0.0      0.7      0.0    105.0       21     82.3     82.3       77     0.000     0.000     0.000     0.000       77        0        0        0        0       51       21     3.802       30     28.4    1.081     0.59        6        7     2019  1212_RCP85_rainfed_15April_sandyloam.PRM
   Tot(4)       15        4     2020    470.9    475.6   1557.2   416.00      0.0    470.9      0.0    285.3      0.0    104.7       26     70.3     70.3       83     0.000     0.000     0.000     0.000       82        0        0        0        0       53        8     3.559       27     30.9    1.099     0.63        9        7     2020  1212_RCP85_rainfed_15April_sandyloam.PRM
   Tot(5)       15        4     2021    731.6    487.1   1567.0   419.00      0.0    731.6      0.0    513.3      0.0    112.7       26     70.6     70.6       88     0.000     0.000     0.000     0.000       85        0        0        0        1       53        6     3.894       28     30.9    1.203     0.66       13        7     2021  1212_RCP85_rainfed_15April_sandyloam.PRM
   Tot(6)       15        4     2022     37.3    666.7   1562.8   422.00      0.0     37.3      0.0      0.0      0.0     45.1        7     60.8     60.8       86     0.000     0.000     0.000     0.000       68        0        0        0        0       59       15     2.450       20     21.6    0.530     0.56        3        7     2022  1212_RCP85_rainfed_15April_sandyloam.PRM
   Tot(7)       15        4     2023    671.5    456.0   1560.0   425.00      0.0    671.5      0.0    466.8      0.0     87.3       24    106.5    106.5       95     0.000     0.000     0.000     0.000       86        0        0        0        1       37        2     8.482       61     30.2    2.560     1.32       15        7     2023  1212_RCP85_rainfed_15April_sandyloam.PRM
   Tot(8)       15        4     2024    684.7    456.0   1570.3   428.00      0.0    684.7      0.0    463.0      0.0     77.1       22    124.9    124.9       98     0.000     0.000     0.000     0.000       84        0        0        0        0       26        1    10.081       73     30.0    3.026     1.51       12        7     2024  1212_RCP85_rainfed_15April_sandyloam.PRM
   Tot(9)       15        4     2025    372.6    469.6   1559.5   431.00      0.0    372.6      0.0    174.0      0.0    103.9       27     77.2     77.2       81     0.000     0.000     0.000     0.000       82        0        0        0        0       50        9     4.135       31     30.7    1.271     0.71       10        7     2025  1212_RCP85_rainfed_15April_sandyloam.PRM
  Tot(10)       15        4     2026     71.2    597.6   1562.0   435.00      0.0     71.2      0.0      0.0      0.0     75.0       17     89.7     89.7       72     0.000     0.000     0.000     0.000       60        0        0        0        0       41       23     4.424       36      7.8    0.346     0.22        4        7     2026  1212_RCP85_rainfed_15April_sandyloam.PRM
  Tot(11)       15        4     2027    212.1    553.8   1559.8   438.00      0.0    212.1      0.0      0.0      0.0    126.4       26     73.9     73.9       87     0.000     0.000     0.000     0.000       81        0        0        0        0       55        7     3.435       26     30.9    1.062     0.54        9        7     2027  1212_RCP85_rainfed_15April_sandyloam.PRM
  Tot(12)       15        4     2028    419.7    515.1   1567.5   442.00      0.0    419.7      0.0    182.3      0.0     88.5       23    116.5    116.5       85     0.000     0.000     0.000     0.000       79        0        0        0        0       43        8     6.064       48     30.6    1.858     0.91        7        7     2028  1212_RCP85_rainfed_15April_sandyloam.PRM
  Tot(13)       15        4     2029    311.2    492.0   1570.9   445.00      0.0    311.2      0.0     60.8      0.0    110.9       31     92.5     92.5       81     0.000     0.000     0.000     0.000       79        0        0        0        0       44        8     5.498       42     30.6    1.681     0.83        7        7     2029  1212_RCP85_rainfed_15April_sandyloam.PRM
  Tot(14)       15        4     2030    314.5    522.7   1568.0   449.00      0.0    314.5      0.0     95.2      0.0    132.6       31     73.9     73.9       81     0.000     0.000     0.000     0.000       80        0        0        0        0       50       14     3.561       28     30.8    1.097     0.54        8        7     2030  1212_RCP85_rainfed_15April_sandyloam.PRM
  Tot(15)       15        4     2031    629.9    524.4   1558.4   452.00      0.0    629.9      0.0    383.6      0.0    100.0       23     78.3     78.3       81     0.000     0.000     0.000     0.000       80        0        0        0        0       49       12     3.900       30     22.7    0.885     0.50        9        7     2031  1212_RCP85_rainfed_15April_sandyloam.PRM
  Tot(16)       15        4     2032    482.7    507.5   1566.2   456.00      0.0    482.7      0.0    308.8      0.0     91.5       20     79.2     79.2       90     0.000     0.000     0.000     0.000       81        0        0        0        0       52        5     4.233       32     30.8    1.303     0.77        9        7     2032  1212_RCP85_rainfed_15April_sandyloam.PRM
  Tot(17)       15        4     2033    533.5    541.9   1569.2   460.00      0.0    533.5      0.0    362.0      0.0     80.7       17     76.3     76.3       85     0.000     0.000     0.000     0.000       80        0        0        0        0       53        7     3.746       29     30.6    1.147     0.73        8        7     2033  1212_RCP85_rainfed_15April_sandyloam.PRM
  Tot(18)       15        4     2034    824.5    457.5   1571.3   464.00      0.0    824.5      0.0    558.3      0.0     92.4       29    126.6    126.6       88     0.000     0.000     0.000     0.000       83        0        0        0        0       27        4     9.502       69     30.7    2.919     1.34       11        7     2034  1212_RCP85_rainfed_15April_sandyloam.PRM
  Tot(19)       15        4     2035    500.1    454.5   1570.7   468.00      0.0    500.1      0.0    156.1      0.0    114.4       36    136.5    136.5       96     0.000     0.000     0.000     0.000       83        0        0        0        0       29        2     9.828       71     30.0    2.950     1.18       11        7     2035  1212_RCP85_rainfed_15April_sandyloam.PRM
  Tot(20)       15        4     2036    435.6    429.3   1561.3   472.00      0.0    435.6      0.0    186.7      0.0    100.6       37    149.3    149.3       97     0.000     0.000     0.000     0.000       83        0        0        0        0       16        1    12.023       86     30.6    3.680     1.48       11        7     2036  1212_RCP85_rainfed_15April_sandyloam.PRM
  Tot(21)       15        4     2037    926.3    425.8   1572.3   476.00      0.0    926.3      0.0    730.7      0.0     88.6       26     98.4     98.4      100     0.000     0.000     0.000     0.000       86        0        0        0        0       32        0     9.757       67     30.0    2.932     1.58       14        7     2037  1212_RCP85_rainfed_15April_sandyloam.PRM
  Tot(22)       15        4     2038    839.9    411.3   1568.3   481.00      0.0    839.9      0.0    608.8      0.0     86.5       30    127.8    127.8       96     0.000     0.000     0.000     0.000       86        0        0        0        0       26        1    11.726       81     30.1    3.524     1.65       14        7     2038  1212_RCP85_rainfed_15April_sandyloam.PRM
  Tot(23)       15        4     2039    542.3    532.4   1572.7   485.00      0.0    542.3      0.0    267.8      0.0     85.8       25    152.2    152.2       83     0.000     0.000     0.000     0.000       80        0        0        0        0       32       10     8.317       64     29.8    2.477     1.05        8        7     2039  1212_RCP85_rainfed_15April_sandyloam.PRM
  Tot(24)       15        4     2040    932.3    472.8   1557.1   489.00      0.0    932.3      0.0    741.8      0.0     92.9       23     96.5     96.5       99     0.000     0.000     0.000     0.000       85        0        0        0        1       34        0     8.435       59     30.0    2.531     1.34       12        7     2040  1212_RCP85_rainfed_15April_sandyloam.PRM
  Tot(25)       15        4     2041    612.9    512.8   1566.8   494.00      0.0    612.9      0.0    394.8      0.0     96.4       24     86.9     86.9       80     0.000     0.000     0.000     0.000       80        0        0        0        0       47        9     4.643       35     30.8    1.429     0.78        8        7     2041  1212_RCP85_rainfed_15April_sandyloam.PRM
  Tot(26)       15        4     2042    315.7    479.4   1562.9   499.00      0.0    315.7      0.0     90.9      0.0    116.0       34    102.0    102.0       81     0.000     0.000     0.000     0.000       81        0        0        0        0       45        9     5.775       43     30.7    1.774     0.82        9        7     2042  1212_RCP85_rainfed_15April_sandyloam.PRM
  Tot(27)       15        4     2043    821.8    411.0   1564.3   504.00      0.0    821.8      0.0    582.9      0.0     93.6       33    130.4    130.4       97     0.000     0.000     0.000     0.000       85        0        0        0        0       25        1    12.002       83     30.1    3.614     1.62       13        7     2043  1212_RCP85_rainfed_15April_sandyloam.PRM
  Tot(28)       15        4     2044    673.5    431.4   1559.6   508.00      0.0    673.5      0.0    426.7      0.0     76.5       22    103.6    103.6       94     0.000     0.000     0.000     0.000       82        0        0        0        0       37        2     7.967       58     30.3    2.416     1.35       10        7     2044  1212_RCP85_rainfed_15April_sandyloam.PRM
  Tot(29)       15        4     2045    578.6    450.0   1565.8   513.00      0.0    578.6      0.0    378.3      0.0    104.1       27     75.3     75.3       97     0.000     0.000     0.000     0.000       83        0        0        0        1       43        1     6.547       46     30.0    1.964     1.10       11        7     2045  1212_RCP85_rainfed_15April_sandyloam.PRM
  Tot(30)       15        4     2046    311.2    600.6   1565.7   519.00      0.0    311.2      0.0    149.1      0.0     61.1       11     62.2     62.2       87     0.000     0.000     0.000     0.000       73        0        0        0        0       56       12     2.640       22      0.9    0.023     0.02        1        7     2046  1212_RCP85_rainfed_15April_sandyloam.PRM
  Tot(31)       15        4     2047    523.3    509.2   1565.7   524.00      0.0    523.3      0.0    310.5      0.0    107.3       24     68.4     68.4       84     0.000     0.000     0.000     0.000       79        0        0        0        0       54        8     3.414       26     30.8    1.050     0.60        7        7     2047  1212_RCP85_rainfed_15April_sandyloam.PRM
  Tot(32)       15        4     2048    819.0    427.7   1565.1   529.00      0.0    819.0      0.0    603.9      0.0    117.1       34     93.5     93.5       94     0.000     0.000     0.000     0.000       83        0        0        0        0       40        3     8.192       58     30.1    2.463     1.18       11        7     2048  1212_RCP85_rainfed_15April_sandyloam.PRM
  Tot(33)       15        4     2049    641.2    451.9   1571.8   535.00      0.0    641.2      0.0    347.8      0.0    101.8       35    165.0    165.0       99     0.000     0.000     0.000     0.000       84        0        0        0        1       19        1    12.119       86     30.5    3.692     1.39       12        7     2049  1212_RCP85_rainfed_15April_sandyloam.PRM
  Tot(34)       15        4     2050    465.3    435.7   1561.1   541.00      0.0    465.3      0.0    195.4      0.0    114.3       42    142.4    142.4       96     0.000     0.000     0.000     0.000       83        0        0        0        0       27        2    11.033       78     30.3    3.338     1.31       12        7     2050  1212_RCP85_rainfed_15April_sandyloam.PRM
  Tot(35)       15        4     2051    433.3    486.6   1564.6   546.00      0.0    433.3      0.0    239.7      0.0     96.8       25     70.7     70.7       81     0.000     0.000     0.000     0.000       56        0        0        0        0       47       18     3.523       28      0.4    0.015     0.01        7        7     2051  1212_RCP85_rainfed_15April_sandyloam.PRM
  Tot(36)       15        4     2052    602.0    542.0   1558.3   552.00      0.0    602.0      0.0    375.8      0.0     89.8       25    102.7    102.7       73     0.000     0.000     0.000     0.000       63        0        0        0        0       36       22     5.488       44      8.2    0.449     0.25        4        7     2052  1212_RCP85_rainfed_15April_sandyloam.PRM
  Tot(37)       15        4     2053    482.4    474.5   1561.8   558.00      0.0    482.4      0.0    251.9      0.0     99.6       28    118.7    118.7       87     0.000     0.000     0.000     0.000       81        0        0        0        0       36        5     7.979       58     30.6    2.442     1.12        9        7     2053  1212_RCP85_rainfed_15April_sandyloam.PRM
  Tot(38)       15        4     2054    711.6    486.6   1562.0   564.00      0.0    711.6      0.0    509.1      0.0    100.7       24     74.4     74.4       89     0.000     0.000     0.000     0.000       79        0        0        0        0       52        4     4.604       35     30.8    1.419     0.82        7        7     2054  1212_RCP85_rainfed_15April_sandyloam.PRM
  Tot(39)       15        4     2055    208.5    485.6   1568.8   571.00      0.0    208.5      0.0      3.6      0.0     88.6       28    108.9    108.9       76     0.000     0.000     0.000     0.000       77        0        0        0        0       34       19     6.863       53     26.5    1.817     0.93        5        7     2055  1212_RCP85_rainfed_15April_sandyloam.PRM
  Tot(40)       15        4     2056   1225.4    386.6   1558.2   577.00      0.0   1225.4      0.0   1006.1      0.0     93.8       37    123.7    123.7       92     0.000     0.000     0.000     0.000       84        0        0        0        0       28        3    10.926       78     30.4    3.319     1.54       12        7     2056  1212_RCP85_rainfed_15April_sandyloam.PRM
  Tot(41)       15        4     2057    659.0    467.3   1565.9   583.00      0.0    659.0      0.0    449.8      0.0     90.2       23     75.9     75.9       87     0.000     0.000     0.000     0.000       78        0        0        0        0       49        5     4.749       36     30.4    1.442     0.87        6        7     2057  1212_RCP85_rainfed_15April_sandyloam.PRM
  Tot(42)       15        4     2058    390.1    455.5   1570.2   590.00      0.0    390.1      0.0    165.0      0.0     81.2       24    123.9    123.9      100     0.000     0.000     0.000     0.000       80        0        0        0        0       29        0     9.496       69     30.1    2.863     1.40        8        7     2058  1212_RCP85_rainfed_15April_sandyloam.PRM
  Tot(43)       15        4     2059    661.7    506.9   1559.9   597.00      0.0    661.7      0.0    444.1      0.0    101.8       27     89.4     89.4       79     0.000     0.000     0.000     0.000       76        0        0        0        0       45       12     4.496       35     30.6    1.374     0.72        5        7     2059  1212_RCP85_rainfed_15April_sandyloam.PRM
  Tot(44)       15        4     2060    677.2    482.3   1572.5   604.00      0.0    677.2      0.0    442.5      0.0    107.4       30     82.6     82.6       78     0.000     0.000     0.000     0.000       79        0        0        0        0       45       12     4.038       31     15.5    0.626     0.33        7        7     2060  1212_RCP85_rainfed_15April_sandyloam.PRM
  Tot(45)       15        4     2061    453.9    482.6   1559.2   611.00      0.0    453.9      0.0    257.6      0.0     85.1       25     95.0     95.0       77     0.000     0.000     0.000     0.000       77        0        0        0        0       42       10     5.630       44      4.6    0.261     0.15        5        7     2061  1212_RCP85_rainfed_15April_sandyloam.PRM
  Tot(46)       15        4     2062    656.9    426.8   1563.4   618.00      0.0    656.9      0.0    391.2      0.0    132.3       51    104.4    104.4       74     0.000     0.000     0.000     0.000       81        0        0        0        0       38       15     6.498       49     30.6    1.987     0.84        9        7     2062  1212_RCP85_rainfed_15April_sandyloam.PRM
  Tot(47)       15        4     2063    895.2    377.2   1570.5   625.00      0.0    895.2      0.0    678.7      0.0     96.2       35    108.4    108.4      100     0.000     0.000     0.000     0.000       84        0        0        0        0       11        0    12.335       85     30.0    3.701     1.81       12        7     2063  1212_RCP85_rainfed_15April_sandyloam.PRM
  Tot(48)       15        4     2064    379.7    506.9   1574.6   632.00      0.0    379.7      0.0    202.4      0.0    100.2       24     73.3     73.3       80     0.000     0.000     0.000     0.000       77        0        0        0        0       48       10     3.772       30     15.3    0.578     0.34        5        7     2064  1212_RCP85_rainfed_15April_sandyloam.PRM
  Tot(49)       15        4     2065    830.8    400.6   1558.2   639.00      0.0    830.8      0.0    591.5      0.0    115.6       42    116.1    116.1       94     0.000     0.000     0.000     0.000       82        0        0        0        0       22        2    11.959       83     30.0    3.588     1.56       10        7     2065  1212_RCP85_rainfed_15April_sandyloam.PRM
  Tot(50)       15        4     2066    732.6    484.7   1561.5   647.00      0.0    732.6      0.0    566.1      0.0     74.3       19     74.1     74.1       78     0.000     0.000     0.000     0.000       78        0        0        0        0       47        9     4.029       30     25.9    1.043     0.71        6        7     2066  1212_RCP85_rainfed_15April_sandyloam.PRM
  Tot(51)       15        4     2067    610.6    471.2   1569.3   654.00      0.0    610.6      0.0    418.3      0.0     97.8       25     88.3     88.3       91     0.000     0.000     0.000     0.000       78        0        0        0        0       49        4     5.960       45     30.6    1.822     1.00        6        7     2067  1212_RCP85_rainfed_15April_sandyloam.PRM
  Tot(52)       15        4     2068    764.1    436.6   1562.1   662.00      0.0    764.1      0.0    535.9      0.0     79.8       26    118.1    118.1       90     0.000     0.000     0.000     0.000       78        0        0        0        0       32        3     9.398       70     30.7    2.889     1.46        6        7     2068  1212_RCP85_rainfed_15April_sandyloam.PRM
  Tot(53)       15        4     2069    703.7    398.8   1559.5   669.00      0.0    703.7      0.0    452.5      0.0     98.3       38    137.5    137.5       98     0.000     0.000     0.000     0.000       80        0        0        0        0       18        1    11.899       86     30.4    3.614     1.54        8        7     2069  1212_RCP85_rainfed_15April_sandyloam.PRM
  Tot(54)       15        4     2070    669.5    417.6   1569.5   677.00      0.0    669.5      0.0    438.1      0.0     87.6       30    133.8    133.8      100     0.000     0.000     0.000     0.000       80        0        0        0        0       18        0    11.644       83     30.0    3.496     1.59        8        7     2070  1212_RCP85_rainfed_15April_sandyloam.PRM
  Tot(55)       15        4     2071   1079.6    310.7   1558.5   685.00      0.0   1079.6      0.0    845.5      0.0    116.6       61    119.9    119.9      100     0.000     0.000     0.000     0.000       84        0        0        0        0        5        0    14.102       96     30.1    4.249     1.81       12        7     2071  1212_RCP85_rainfed_15April_sandyloam.PRM
  Tot(56)       15        4     2072    768.6    340.1   1571.6   693.00      0.0    768.6      0.0    530.5      0.0    102.8       47    122.1    122.1      100     0.000     0.000     0.000     0.000       82        0        0        0        0       11        0    13.214       94     30.1    3.974     1.77       10        7     2072  1212_RCP85_rainfed_15April_sandyloam.PRM
  Tot(57)       15        4     2073    269.4    583.3   1558.4   701.00      0.0    269.4      0.0     95.4      0.0     57.4       12     74.3     74.3       80     0.000     0.000     0.000     0.000       58        0        0        0        0       49       18     3.682       31      0.1    0.003     0.00       29        6     2073  1212_RCP85_rainfed_15April_sandyloam.PRM
  Tot(58)       15        4     2074    357.2    498.3   1570.5   709.00      0.0    357.2      0.0    119.5      0.0    109.2       32    128.9    128.9       88     0.000     0.000     0.000     0.000       77        0        0        0        0       36        5     8.139       62     30.7    2.502     1.05        5        7     2074  1212_RCP85_rainfed_15April_sandyloam.PRM
  Tot(59)       15        4     2075    517.3    562.0   1571.5   717.00      0.0    517.3      0.0    320.6      0.0     88.0       21     87.6     87.6       78     0.000     0.000     0.000     0.000       61        0        0        0        0       44       20     4.760       38     15.5    0.738     0.48        2        7     2075  1212_RCP85_rainfed_15April_sandyloam.PRM
  Tot(60)       15        4     2076    966.2    310.3   1561.2   725.00      0.0    966.2      0.0    713.3      0.0    114.1       53     94.6     94.6      100     0.000     0.000     0.000     0.000       84        0        0        0        0        4        0    13.913       94     30.0    4.174     2.00       12        7     2076  1212_RCP85_rainfed_15April_sandyloam.PRM
  Tot(61)       15        4     2077    438.2    408.1   1560.0   733.00      0.0    438.2      0.0    168.9      0.0    123.7       52    147.9    147.9      100     0.000     0.000     0.000     0.000       79        0        0        0        0        7        0    13.006       93     30.3    3.938     1.46        7        7     2077  1212_RCP85_rainfed_15April_sandyloam.PRM
  Tot(62)       15        4     2078    783.4    442.7   1557.9   742.00      0.0    783.4      0.0    600.7      0.0     92.0       24     80.8     80.8      100     0.000     0.000     0.000     0.000       76        0        0        0        0       43        0     6.925       52     30.6    2.116     1.24        4        7     2078  1212_RCP85_rainfed_15April_sandyloam.PRM
  Tot(63)       15        4     2079    594.7    441.3   1567.1   750.00      0.0    594.7      0.0    413.0      0.0     99.0       27     83.5     83.5       91     0.000     0.000     0.000     0.000       78        0        0        0        0       44        4     6.861       51     30.1    2.068     1.15        6        7     2079  1212_RCP85_rainfed_15April_sandyloam.PRM
  Tot(64)       15        4     2080    910.9    455.9   1564.3   758.00      0.0    910.9      0.0    610.4      0.0     74.3       25    138.4    138.4       94     0.000     0.000     0.000     0.000       77        0        0        0        0       12        2    10.971       81     22.6    2.478     1.17        5        7     2080  1212_RCP85_rainfed_15April_sandyloam.PRM
  Tot(65)       15        4     2081    699.0    413.5   1569.4   767.00      0.0    699.0      0.0    467.3      0.0     98.9       33    111.8    111.8      100     0.000     0.000     0.000     0.000       79        0        0        0        0       19        0    11.242       81     30.0    3.373     1.60        7        7     2081  1212_RCP85_rainfed_15April_sandyloam.PRM
  Tot(66)       15        4     2082   1064.1    305.2   1560.3   775.00      0.0   1064.1      0.0    860.1      0.0     97.4       49    102.4    102.4      100     0.000     0.000     0.000     0.000       83        0        0        0        0        4        0    13.815       95     30.0    4.145     2.08       11        7     2082  1212_RCP85_rainfed_15April_sandyloam.PRM
  Tot(67)       15        4     2083    932.3    503.0   1573.7   784.00      0.0    932.3      0.0    713.1      0.0    108.9       34    106.9    106.9       77     0.000     0.000     0.000     0.000       76        0        0        0        0       36       17     6.096       48     16.8    1.024     0.48        4        7     2083  1212_RCP85_rainfed_15April_sandyloam.PRM
  Tot(68)       15        4     2084    871.2    468.5   1567.3   792.00      0.0    871.2      0.0    567.8      0.0    138.1       46    103.8    103.8       76     0.000     0.000     0.000     0.000       76        0        0        0        0       38       14     6.100       47     10.1    0.615     0.25        4        7     2084  1212_RCP85_rainfed_15April_sandyloam.PRM
  Tot(69)       15        4     2085    557.6    392.6   1574.1   801.00      0.0    557.6      0.0    387.1      0.0     79.5       25     82.2     82.2       96     0.000     0.000     0.000     0.000       78        0        0        0        0       38        2     7.881       59     30.0    2.364     1.49        6        7     2085  1212_RCP85_rainfed_15April_sandyloam.PRM
  Tot(70)       15        4     2086    490.2    419.5   1574.4   810.00      0.0    490.2      0.0    265.6      0.0     66.9       26    146.7    146.7       94     0.000     0.000     0.000     0.000       77        0        0        0        0       16        3    10.938       82     23.6    2.576     1.21        5        7     2086  1212_RCP85_rainfed_15April_sandyloam.PRM
  Tot(71)       15        4     2087    344.3    459.8   1572.7   818.00      0.0    344.3      0.0     74.7      0.0    104.0       39    164.6    164.6       98     0.000     0.000     0.000     0.000       76        0        0        0        0       15        1    11.786       89     30.8    3.626     1.36        3        7     2087  1212_RCP85_rainfed_15April_sandyloam.PRM
  Tot(72)       15        4     2088    419.9    431.7   1557.4   827.00      0.0    419.9      0.0    170.3      0.0     91.9       34    150.1    150.1      100     0.000     0.000     0.000     0.000       77        0        0        0        0       12        0    12.041       90     30.3    3.649     1.51        4        7     2088  1212_RCP85_rainfed_15April_sandyloam.PRM
  Tot(73)       15        4     2089    904.9    444.8   1564.9   836.00      0.0    904.9      0.0    714.3      0.0     69.1       20    100.5    100.5       98     0.000     0.000     0.000     0.000       76        0        0        0        0       31        0     9.011       68     30.6    2.759     1.64        4        7     2089  1212_RCP85_rainfed_15April_sandyloam.PRM
  Tot(74)       15        4     2090    318.9    458.8   1560.4   845.00      0.0    318.9      0.0    135.1      0.0     90.3       23     68.2     68.2       93     0.000     0.000     0.000     0.000       74        0        0        0        0       52        3     4.813       38     30.7    1.477     0.93        2        7     2090  1212_RCP85_rainfed_15April_sandyloam.PRM
  Tot(75)       15        4     2091    581.4    469.2   1568.1   854.00      0.0    581.4      0.0    389.4      0.0    101.1       30     74.6     74.6       79     0.000     0.000     0.000     0.000       57        0        0        0        0       44       19     3.991       33      5.3    0.213     0.14        2        7     2091  1212_RCP85_rainfed_15April_sandyloam.PRM
  Tot(76)       15        4     2092    911.2    398.0   1560.6   863.00      0.0    911.2      0.0    555.2      0.0    113.2       47    149.8    149.8       99     0.000     0.000     0.000     0.000       78        0        0        0        0       14        0    12.316       92     30.0    3.695     1.41        6        7     2092  1212_RCP85_rainfed_15April_sandyloam.PRM
  Tot(77)       15        4     2093    558.1    407.8   1563.2   872.00      0.0    558.1      0.0    375.6      0.0     88.1       27     87.8     87.8      100     0.000     0.000     0.000     0.000       76        0        0        0        0       34        0     8.785       67     30.0    2.639     1.52        4        7     2093  1212_RCP85_rainfed_15April_sandyloam.PRM
  Tot(78)       15        4     2094    789.7    374.3   1569.9   881.00      0.0    789.7      0.0    530.0      0.0     93.9       37    114.9    114.9      100     0.000     0.000     0.000     0.000       78        0        0        0        0       11        0    11.730       87     30.1    3.526     1.70        6        7     2094  1212_RCP85_rainfed_15April_sandyloam.PRM
  Tot(79)       15        4     2095    790.5    339.7   1561.1   890.00      0.0    790.5      0.0    517.2      0.0     97.2       47    122.4    122.4      100     0.000     0.000     0.000     0.000       78        0        0        0        0       11        0    12.639       93     30.2    3.819     1.74        6        7     2095  1212_RCP85_rainfed_15April_sandyloam.PRM
  Tot(80)       15        4     2096    889.0    453.2   1568.3   899.00      0.0    889.0      0.0    611.4      0.0     96.6       32    141.5    141.5       97     0.000     0.000     0.000     0.000       77        0        0        0        0       27        1    10.319       79     30.6    3.162     1.33        5        7     2096  1212_RCP85_rainfed_15April_sandyloam.PRM
  Tot(81)       15        4     2097   1017.0    387.0   1563.7   908.00      0.0   1017.0      0.0    818.6      0.0     83.9       30    102.2    102.2      100     0.000     0.000     0.000     0.000       78        0        0        0        0       17        0    11.361       84     30.1    3.416     1.84        5        7     2097  1212_RCP85_rainfed_15April_sandyloam.PRM
  Tot(82)       15        4     2098    719.8    369.7   1565.1   917.00      0.0    719.8      0.0    493.3      0.0     84.3       35    121.3    121.3      100     0.000     0.000     0.000     0.000       77        0        0        0        0       10        0    12.249       91     30.0    3.680     1.80        5        7     2098  1212_RCP85_rainfed_15April_sandyloam.PRM
  Tot(83)       15        4     2099   1551.5    347.2   1562.9   927.00      0.0   1551.5      0.0   1321.1      0.0    100.0       40     92.4     92.4      100     0.000     0.000     0.000     0.000       78        0        0        0        0       13        0    12.185       87     30.0    3.656     1.91        6        7     2099  1212_RCP85_rainfed_15April_sandyloam.PRM
