AquaCrop 6.0 (March 2017) - Output created on (date) : 07/06/2021   at (time) : 20:31:43

    RunNr     Day1   Month1    Year1     Rain      ETo       GD     CO2      Irri   Infilt   Runoff    Drain   Upflow        E     E/Ex       Tr      TrW   Tr/Trx    SaltIn   SaltOut    SaltUp  SaltProf     Cycle   SaltStr  FertStr  WeedStr  TempStr   ExpStr   StoStr  BioMass  Brelative   HI     Yield     WPet     DayN   MonthN    YearN
                                           mm       mm    °C.day    ppm        mm       mm       mm       mm       mm       mm        %       mm       mm        %    ton/ha    ton/ha    ton/ha    ton/ha      days       %        %        %        %        %        %    ton/ha        %       %    ton/ha    kg/m3
   Tot(1)       15        4     2017   1047.0    391.6   1570.8   407.00      0.0   1047.0      0.0    751.7      0.0    105.7       42    150.0    150.0      100     0.000     0.000     0.000     0.000       87        0        0        0        0        7        0    13.271       93     30.0    3.985     1.57       15        7     2017  1311_RCP85_rainfed_15April_sandy.PRM
   Tot(2)       15        4     2018   1051.4    422.6   1562.3   410.00      0.0   1051.4      0.0    904.0      0.0     84.3       21     56.2     56.2       94     0.000     0.000     0.000     0.000       86        0        0        0        1       48        3     5.252       37     30.2    1.586     1.13       15        7     2018  1311_RCP85_rainfed_15April_sandy.PRM
   Tot(3)       15        4     2019    170.5    552.1   1573.3   413.00      0.0    170.5      0.0      2.0      0.0    124.2       26     64.3     64.3       70     0.000     0.000     0.000     0.000       78        0        0        0        0       47       18     3.396       27     28.8    0.979     0.53        7        7     2019  1311_RCP85_rainfed_15April_sandy.PRM
   Tot(4)       15        4     2020    618.5    443.0   1565.1   416.00      0.0    618.5      0.0    428.4      0.0    122.9       30     52.3     52.3       85     0.000     0.000     0.000     0.000       82        0        0        0        0       51        8     3.550       27     30.7    1.091     0.63       10        7     2020  1311_RCP85_rainfed_15April_sandy.PRM
   Tot(5)       15        4     2021    779.9    462.4   1562.3   419.00      0.0    779.9      0.0    576.8      0.0    129.2       29     42.2     42.2       84     0.000     0.000     0.000     0.000       85        0        0        0        0       55        8     2.553       18     30.3    0.775     0.46       13        7     2021  1311_RCP85_rainfed_15April_sandy.PRM
   Tot(6)       15        4     2022    114.6    626.0   1569.7   422.00      0.0    114.6      0.0      0.0      0.0     50.3        8     32.8     32.8       87     0.000     0.000     0.000     0.000       71        0        0        0        0       67       14     1.421       11     19.5    0.277     0.41        4        7     2022  1311_RCP85_rainfed_15April_sandy.PRM
   Tot(7)       15        4     2023    747.1    427.2   1559.6   425.00      0.0    747.1      0.0    566.0      0.0     90.0       24     78.1     78.1       97     0.000     0.000     0.000     0.000       86        0        0        0        1       39        1     7.303       52     30.0    2.192     1.31       15        7     2023  1311_RCP85_rainfed_15April_sandy.PRM
   Tot(8)       15        4     2024    795.7    423.6   1562.4   428.00      0.0    795.7      0.0    595.2      0.0     81.3       24     97.4     97.4       98     0.000     0.000     0.000     0.000       84        0        0        0        0       29        1     9.204       66     30.0    2.761     1.55       12        7     2024  1311_RCP85_rainfed_15April_sandy.PRM
   Tot(9)       15        4     2025    491.8    446.2   1568.0   431.00      0.0    491.8      0.0    283.5      0.0    130.7       33     51.2     51.2       75     0.000     0.000     0.000     0.000       83        0        0        0        0       54       12     3.108       23     30.7    0.953     0.53       11        7     2025  1311_RCP85_rainfed_15April_sandy.PRM
  Tot(10)       15        4     2026    113.1    553.9   1557.3   435.00      0.0    113.1      0.0      4.9      0.0     88.9       21     63.2     63.2       66     0.000     0.000     0.000     0.000       56        0        0        0        0       42       26     3.536       29      8.3    0.293     0.21        5        7     2026  1311_RCP85_rainfed_15April_sandy.PRM
  Tot(11)       15        4     2027    369.0    521.3   1569.0   438.00      0.0    369.0      0.0     68.9      0.0    131.4       27     51.5     51.5       84     0.000     0.000     0.000     0.000       82        0        0        0        0       54        9     2.670       20     30.9    0.824     0.45       10        7     2027  1311_RCP85_rainfed_15April_sandy.PRM
  Tot(12)       15        4     2028    499.3    476.1   1561.2   442.00      0.0    499.3      0.0    264.4      0.0    107.1       27     89.0     89.0       93     0.000     0.000     0.000     0.000       79        0        0        0        0       43        5     5.195       41     30.2    1.570     0.80        7        7     2028  1311_RCP85_rainfed_15April_sandy.PRM
  Tot(13)       15        4     2029    462.9    456.6   1571.5   445.00      0.0    462.9      0.0    221.1      0.0    118.3       36     93.2     93.2       79     0.000     0.000     0.000     0.000       80        0        0        0        0       39        9     6.597       50     30.4    2.003     0.95        8        7     2029  1311_RCP85_rainfed_15April_sandy.PRM
  Tot(14)       15        4     2030    441.9    480.3   1558.0   449.00      0.0    441.9      0.0    213.4      0.0    140.1       36     73.8     73.8       71     0.000     0.000     0.000     0.000       80        0        0        0        0       46       16     4.286       33     30.2    1.293     0.61        8        7     2030  1311_RCP85_rainfed_15April_sandy.PRM
  Tot(15)       15        4     2031    803.9    491.1   1570.3   452.00      0.0    803.9      0.0    568.2      0.0    113.3       28     70.9     70.9       69     0.000     0.000     0.000     0.000       81        0        0        0        0       48       15     4.206       32     21.7    0.913     0.50       10        7     2031  1311_RCP85_rainfed_15April_sandy.PRM
  Tot(16)       15        4     2032    589.0    475.7   1562.0   456.00      0.0    589.0      0.0    416.3      0.0    110.4       25     57.2     57.2       89     0.000     0.000     0.000     0.000       81        0        0        0        0       52        6     3.552       27     30.6    1.086     0.65        9        7     2032  1311_RCP85_rainfed_15April_sandy.PRM
  Tot(17)       15        4     2033    625.8    506.5   1560.5   460.00      0.0    625.8      0.0    459.3      0.0    103.1       21     42.8     42.8       85     0.000     0.000     0.000     0.000       80        0        0        0        0       59        7     2.278       17     30.6    0.697     0.48        8        7     2033  1311_RCP85_rainfed_15April_sandy.PRM
  Tot(18)       15        4     2034    970.8    423.0   1559.5   464.00      0.0    970.8      0.0    699.4      0.0    102.0       34    118.3    118.3       90     0.000     0.000     0.000     0.000       83        0        0        0        0       24        3     9.842       71     30.7    3.024     1.38       11        7     2034  1311_RCP85_rainfed_15April_sandy.PRM
  Tot(19)       15        4     2035    558.0    425.3   1564.3   468.00      0.0    558.0      0.0    232.8      0.0    120.7       38    105.2    105.2       94     0.000     0.000     0.000     0.000       83        0        0        0        0       33        4     8.461       61     30.0    2.538     1.13       11        7     2035  1311_RCP85_rainfed_15April_sandy.PRM
  Tot(20)       15        4     2036    550.4    393.6   1557.0   472.00      0.0    550.4      0.0    316.5      0.0    103.4       39    131.0    131.0      100     0.000     0.000     0.000     0.000       84        0        0        0        0       15        0    11.889       84     30.4    3.613     1.54       11        7     2036  1311_RCP85_rainfed_15April_sandy.PRM
  Tot(21)       15        4     2037   1031.0    395.4   1569.7   476.00      0.0   1031.0      0.0    848.6      0.0     91.4       28     80.8     80.8      100     0.000     0.000     0.000     0.000       86        0        0        0        0       30        0     9.286       64     30.0    2.786     1.63       14        7     2037  1311_RCP85_rainfed_15April_sandy.PRM
  Tot(22)       15        4     2038    904.8    387.7   1559.0   481.00      0.0    904.8      0.0    653.5      0.0     92.5       32    106.6    106.6       98     0.000     0.000     0.000     0.000       85        0        0        0        0       26        1    10.924       75     30.1    3.289     1.66       13        7     2038  1311_RCP85_rainfed_15April_sandy.PRM
  Tot(23)       15        4     2039    680.7    497.6   1565.6   485.00      0.0    680.7      0.0    408.0      0.0     97.8       30    140.2    140.2       81     0.000     0.000     0.000     0.000       80        0        0        0        0       29       11     8.352       63     29.5    2.463     1.04        8        7     2039  1311_RCP85_rainfed_15April_sandy.PRM
  Tot(24)       15        4     2040    936.9    448.8   1558.4   489.00      0.0    936.9      0.0    766.6      0.0    117.1       28     52.5     52.5       99     0.000     0.000     0.000     0.000       84        0        0        0        1       41        1     5.155       36     30.0    1.546     0.92       12        7     2040  1311_RCP85_rainfed_15April_sandy.PRM
  Tot(25)       15        4     2041    707.7    466.5   1557.7   494.00      0.0    707.7      0.0    497.7      0.0    100.4       28     68.5     68.5       72     0.000     0.000     0.000     0.000       80        0        0        0        0       46       12     4.040       30     26.0    1.051     0.63        8        7     2041  1311_RCP85_rainfed_15April_sandy.PRM
  Tot(26)       15        4     2042    404.6    445.5   1571.0   499.00      0.0    404.6      0.0    188.0      0.0    119.3       39     91.4     91.4       67     0.000     0.000     0.000     0.000       82        0        0        0        0       40       14     6.223       45     29.0    1.804     0.86       10        7     2042  1311_RCP85_rainfed_15April_sandy.PRM
  Tot(27)       15        4     2043    892.2    387.9   1567.7   504.00      0.0    892.2      0.0    669.2      0.0    100.5       37    109.9    109.9       89     0.000     0.000     0.000     0.000       85        0        0        0        0       27        4    11.086       76     30.0    3.330     1.59       13        7     2043  1311_RCP85_rainfed_15April_sandy.PRM
  Tot(28)       15        4     2044    806.4    401.7   1565.7   508.00      0.0    806.4      0.0    573.6      0.0    103.9       29     67.4     67.4       97     0.000     0.000     0.000     0.000       83        0        0        0        0       40        2     5.918       42     30.0    1.778     1.04       11        7     2044  1311_RCP85_rainfed_15April_sandy.PRM
  Tot(29)       15        4     2045    631.8    422.3   1566.3   513.00      0.0    631.8      0.0    436.2      0.0    104.6       28     61.0     61.0       96     0.000     0.000     0.000     0.000       83        0        0        0        0       42        3     6.468       45     30.0    1.940     1.18       11        7     2045  1311_RCP85_rainfed_15April_sandy.PRM
  Tot(30)       15        4     2046    427.2    562.7   1570.3   519.00      0.0    427.2      0.0    251.5      0.0     69.7       12     32.6     32.6       90     0.000     0.000     0.000     0.000       74        0        0        0        0       66        8     1.474       12      6.9    0.101     0.10        2        7     2046  1311_RCP85_rainfed_15April_sandy.PRM
  Tot(31)       15        4     2047    606.7    471.7   1570.2   524.00      0.0    606.7      0.0    430.2      0.0    127.1       29     37.2     37.2       81     0.000     0.000     0.000     0.000       80        0        0        0        0       58        9     1.977       15     30.9    0.610     0.37        8        7     2047  1311_RCP85_rainfed_15April_sandy.PRM
  Tot(32)       15        4     2048    942.9    399.3   1566.7   529.00      0.0    942.9      0.0    731.3      0.0    120.1       37     81.6     81.6       90     0.000     0.000     0.000     0.000       83        0        0        0        0       37        5     8.157       58     30.0    2.447     1.22       11        7     2048  1311_RCP85_rainfed_15April_sandy.PRM
  Tot(33)       15        4     2049    800.3    418.8   1568.8   535.00      0.0    800.3      0.0    518.9      0.0    101.4       36    147.0    147.0      100     0.000     0.000     0.000     0.000       84        0        0        0        0       16        0    12.012       85     30.3    3.645     1.48       12        7     2049  1311_RCP85_rainfed_15April_sandy.PRM
  Tot(34)       15        4     2050    615.1    399.5   1573.0   541.00      0.0    615.1      0.0    356.9      0.0    122.3       46    116.1    116.1       94     0.000     0.000     0.000     0.000       84        0        0        0        0       27        3    10.301       72     30.0    3.093     1.30       13        7     2050  1311_RCP85_rainfed_15April_sandy.PRM
  Tot(35)       15        4     2051    485.7    448.8   1557.8   546.00      0.0    485.7      0.0    304.1      0.0    109.2       28     42.0     42.0       73     0.000     0.000     0.000     0.000       51        0        0        0        0       50       23     2.352       19      4.0    0.095     0.07        7        7     2051  1311_RCP85_rainfed_15April_sandy.PRM
  Tot(36)       15        4     2052    720.2    502.4   1558.7   552.00      0.0    720.2      0.0    502.7      0.0    100.0       30     85.7     85.7       66     0.000     0.000     0.000     0.000       63        0        0        0        0       32       28     5.143       40      7.0    0.361     0.21        5        7     2052  1311_RCP85_rainfed_15April_sandy.PRM
  Tot(37)       15        4     2053    609.8    443.0   1571.9   558.00      0.0    609.8      0.0    356.0      0.0    101.9       33    129.7    129.7       90     0.000     0.000     0.000     0.000       82        0        0        0        0       25        4     9.658       70     30.4    2.933     1.27       10        7     2053  1311_RCP85_rainfed_15April_sandy.PRM
  Tot(38)       15        4     2054    792.2    451.4   1573.3   564.00      0.0    792.2      0.0    602.5      0.0    122.6       28     47.3     47.3       91     0.000     0.000     0.000     0.000       80        0        0        0        0       55        4     3.513       26     30.8    1.081     0.64        8        7     2054  1311_RCP85_rainfed_15April_sandy.PRM
  Tot(39)       15        4     2055    305.6    444.3   1572.8   571.00      0.0    305.6      0.0     91.7      0.0    102.3       36    104.1    104.1       74     0.000     0.000     0.000     0.000       78        0        0        0        0       27       13     7.347       56     28.9    2.121     1.04        6        7     2055  1311_RCP85_rainfed_15April_sandy.PRM
  Tot(40)       15        4     2056   1452.0    355.7   1569.7   577.00      0.0   1452.0      0.0   1241.2      0.0    100.3       41     97.5     97.5       86     0.000     0.000     0.000     0.000       85        0        0        0        0       26        4    10.465       75     30.0    3.141     1.60       13        7     2056  1311_RCP85_rainfed_15April_sandy.PRM
  Tot(41)       15        4     2057    817.6    431.8   1560.0   583.00      0.0    817.6      0.0    618.2      0.0    107.8       26     44.0     44.0       87     0.000     0.000     0.000     0.000       78        0        0        0        0       54        6     3.240       25     30.3    0.983     0.65        6        7     2057  1311_RCP85_rainfed_15April_sandy.PRM
  Tot(42)       15        4     2058    530.7    416.4   1564.5   590.00      0.0    530.7      0.0    308.3      0.0     87.0       27     99.6     99.6      100     0.000     0.000     0.000     0.000       80        0        0        0        0       31        0     8.734       64     30.0    2.623     1.41        8        7     2058  1311_RCP85_rainfed_15April_sandy.PRM
  Tot(43)       15        4     2059    807.9    473.9   1561.5   597.00      0.0    807.9      0.0    592.5      0.0    106.0       29     85.5     85.5       72     0.000     0.000     0.000     0.000       77        0        0        0        0       44       12     5.409       42     23.7    1.279     0.67        6        7     2059  1311_RCP85_rainfed_15April_sandy.PRM
  Tot(44)       15        4     2060    821.3    448.8   1569.3   604.00      0.0    821.3      0.0    595.1      0.0    122.4       32     50.5     50.5       75     0.000     0.000     0.000     0.000       79        0        0        0        0       50       14     2.621       20     24.7    0.648     0.38        7        7     2060  1311_RCP85_rainfed_15April_sandy.PRM
  Tot(45)       15        4     2061    526.4    446.2   1570.8   611.00      0.0    526.4      0.0    346.7      0.0    104.2       29     56.0     56.0       73     0.000     0.000     0.000     0.000       78        0        0        0        0       47       14     3.459       27     14.2    0.491     0.31        6        7     2061  1311_RCP85_rainfed_15April_sandy.PRM
  Tot(46)       15        4     2062    802.6    388.1   1558.4   618.00      0.0    802.6      0.0    535.6      0.0    138.9       58     89.7     89.7       63     0.000     0.000     0.000     0.000       81        0        0        0        0       34       19     6.616       49     24.4    1.617     0.71        9        7     2062  1311_RCP85_rainfed_15April_sandy.PRM
  Tot(47)       15        4     2063    999.1    352.5   1564.0   625.00      0.0    999.1      0.0    789.7      0.0     92.9       35     90.8     90.8      100     0.000     0.000     0.000     0.000       83        0        0        0        0       16        0    11.357       79     30.0    3.407     1.86       11        7     2063  1311_RCP85_rainfed_15April_sandy.PRM
  Tot(48)       15        4     2064    444.1    465.8   1561.9   632.00      0.0    444.1      0.0    276.8      0.0    111.4       27     49.9     49.9       72     0.000     0.000     0.000     0.000       77        0        0        0        0       52       13     2.906       23     21.9    0.635     0.40        5        7     2064  1311_RCP85_rainfed_15April_sandy.PRM
  Tot(49)       15        4     2065   1003.1    371.3   1557.1   639.00      0.0   1003.1      0.0    771.7      0.0    126.5       49     96.8     96.8       87     0.000     0.000     0.000     0.000       83        0        0        0        0       22        5    11.360       79     30.0    3.408     1.53       10        7     2065  1311_RCP85_rainfed_15April_sandy.PRM
  Tot(50)       15        4     2066    909.4    453.7   1568.6   647.00      0.0    909.4      0.0    734.9      0.0    102.0       26     45.0     45.0       71     0.000     0.000     0.000     0.000       79        0        0        0        0       50       12     2.613       19     30.6    0.800     0.55        7        7     2066  1311_RCP85_rainfed_15April_sandy.PRM
  Tot(51)       15        4     2067    715.1    439.4   1566.9   654.00      0.0    715.1      0.0    533.5      0.0    117.9       29     56.9     56.9       92     0.000     0.000     0.000     0.000       78        0        0        0        0       53        4     4.233       32     30.5    1.292     0.75        6        7     2067  1311_RCP85_rainfed_15April_sandy.PRM
  Tot(52)       15        4     2068    907.2    409.2   1572.5   662.00      0.0    907.2      0.0    694.9      0.0    102.9       34    101.9    101.9       92     0.000     0.000     0.000     0.000       79        0        0        0        0       33        3     9.172       68     30.7    2.815     1.39        7        7     2068  1311_RCP85_rainfed_15April_sandy.PRM
  Tot(53)       15        4     2069    890.1    370.3   1573.8   669.00      0.0    890.1      0.0    591.1      0.0    107.5       44    121.3    121.3       95     0.000     0.000     0.000     0.000       81        0        0        0        0       16        1    11.806       85     30.0    3.544     1.56        9        7     2069  1311_RCP85_rainfed_15April_sandy.PRM
  Tot(54)       15        4     2070    785.1    386.3   1569.4   677.00      0.0    785.1      0.0    563.5      0.0     93.8       34    116.5    116.5      100     0.000     0.000     0.000     0.000       80        0        0        0        0       18        0    11.368       81     30.0    3.411     1.63        8        7     2070  1311_RCP85_rainfed_15April_sandy.PRM
  Tot(55)       15        4     2071   1145.4    296.4   1564.2   685.00      0.0   1145.4      0.0    918.8      0.0    115.0       63    113.9    113.9      100     0.000     0.000     0.000     0.000       84        0        0        0        0        5        0    14.169       97     30.1    4.264     1.88       12        7     2071  1311_RCP85_rainfed_15April_sandy.PRM
  Tot(56)       15        4     2072    844.6    323.2   1565.6   693.00      0.0    844.6      0.0    628.1      0.0    104.8       48    100.0    100.0       93     0.000     0.000     0.000     0.000       81        0        0        0        0       18        2    11.966       85     30.1    3.600     1.76        9        7     2072  1311_RCP85_rainfed_15April_sandy.PRM
  Tot(57)       15        4     2073    355.1    547.7   1570.5   701.00      0.0    355.1      0.0    204.0      0.0     62.0       12     45.8     45.8       80     0.000     0.000     0.000     0.000       58        0        0        0        0       55       18     2.428       20      0.8    0.019     0.02       30        6     2073  1311_RCP85_rainfed_15April_sandy.PRM
  Tot(58)       15        4     2074    462.8    450.9   1561.7   709.00      0.0    462.8      0.0    221.1      0.0    119.4       38    121.7    121.7       94     0.000     0.000     0.000     0.000       77        0        0        0        0       33        2     8.585       65     30.6    2.629     1.09        5        7     2074  1311_RCP85_rainfed_15April_sandy.PRM
  Tot(59)       15        4     2075    613.4    523.4   1574.6   717.00      0.0    613.4      0.0    424.1      0.0    103.4       26     66.4     66.4       69     0.000     0.000     0.000     0.000       75        0        0        0        0       45       23     3.955       31     22.0    0.870     0.52        3        7     2075  1311_RCP85_rainfed_15April_sandy.PRM
  Tot(60)       15        4     2076   1107.7    283.7   1571.1   725.00      0.0   1107.7      0.0    858.1      0.0    114.5       58     85.6     85.6      100     0.000     0.000     0.000     0.000       84        0        0        0        0        4        0    13.704       93     30.0    4.111     2.06       12        7     2076  1311_RCP85_rainfed_15April_sandy.PRM
  Tot(61)       15        4     2077    615.0    381.6   1558.0   733.00      0.0    615.0      0.0    362.5      0.0    119.1       54    133.1    133.1       96     0.000     0.000     0.000     0.000       79        0        0        0        0       11        2    12.390       89     30.9    3.825     1.53        7        7     2077  1311_RCP85_rainfed_15April_sandy.PRM
  Tot(62)       15        4     2078    887.4    409.0   1558.1   742.00      0.0    887.4      0.0    710.3      0.0     91.8       26     71.7     71.7       99     0.000     0.000     0.000     0.000       76        0        0        0        0       36        1     7.608       57     30.1    2.287     1.41        4        7     2078  1311_RCP85_rainfed_15April_sandy.PRM
  Tot(63)       15        4     2079    678.2    413.5   1561.5   750.00      0.0    678.2      0.0    517.8      0.0     97.0       27     64.1     64.1       87     0.000     0.000     0.000     0.000       78        0        0        0        0       41        6     6.607       49     30.0    1.982     1.25        6        7     2079  1311_RCP85_rainfed_15April_sandy.PRM
  Tot(64)       15        4     2080   1028.1    425.2   1561.4   758.00      0.0   1028.1      0.0    739.4      0.0     82.0       27    100.7    100.7       86     0.000     0.000     0.000     0.000       77        0        0        0        0       20        5     8.775       65     29.2    2.563     1.41        5        7     2080  1311_RCP85_rainfed_15April_sandy.PRM
  Tot(65)       15        4     2081    860.1    388.2   1569.7   767.00      0.0    860.1      0.0    614.9      0.0    114.2       40    104.0    104.0      100     0.000     0.000     0.000     0.000       79        0        0        0        0       13        0    11.558       84     30.0    3.467     1.59        7        7     2081  1311_RCP85_rainfed_15April_sandy.PRM
  Tot(66)       15        4     2082   1187.9    284.3   1567.7   775.00      0.0   1187.9      0.0    987.7      0.0     97.6       53     98.7     98.7      100     0.000     0.000     0.000     0.000       83        0        0        0        0        3        0    13.866       96     30.0    4.160     2.12       11        7     2082  1311_RCP85_rainfed_15April_sandy.PRM
  Tot(67)       15        4     2083   1004.1    470.6   1567.3   784.00      0.0   1004.1      0.0    795.2      0.0    102.8       35    101.7    101.7       66     0.000     0.000     0.000     0.000       76        0        0        0        0       29       19     6.469       50     18.6    1.205     0.59        4        7     2083  1311_RCP85_rainfed_15April_sandy.PRM
  Tot(68)       15        4     2084   1029.4    422.9   1560.1   792.00      0.0   1029.4      0.0    705.9      0.0    140.5       57    111.0    111.0       72     0.000     0.000     0.000     0.000       76        0        0        0        0       27       14     7.854       60     12.2    0.959     0.38        4        7     2084  1311_RCP85_rainfed_15April_sandy.PRM
  Tot(69)       15        4     2085    666.3    364.8   1572.8   801.00      0.0    666.3      0.0    507.3      0.0     89.7       29     59.4     59.4       94     0.000     0.000     0.000     0.000       78        0        0        0        0       40        3     6.778       50     30.0    2.033     1.39        6        7     2085  1311_RCP85_rainfed_15April_sandy.PRM
  Tot(70)       15        4     2086    617.7    386.8   1572.3   810.00      0.0    617.7      0.0    407.0      0.0     79.3       34    118.9    118.9       85     0.000     0.000     0.000     0.000       77        0        0        0        0       19        6     9.977       74     30.4    3.028     1.54        5        7     2086  1311_RCP85_rainfed_15April_sandy.PRM
  Tot(71)       15        4     2087    487.6    419.7   1561.8   818.00      0.0    487.6      0.0    235.9      0.0    108.5       44    139.7    139.7       94     0.000     0.000     0.000     0.000       76        0        0        0        0       16        2    11.264       85     30.6    3.446     1.40        3        7     2087  1311_RCP85_rainfed_15April_sandy.PRM
  Tot(72)       15        4     2088    641.0    396.1   1565.2   827.00      0.0    641.0      0.0    333.2      0.0    103.7       42    132.3    132.3       98     0.000     0.000     0.000     0.000       77        0        0        0        0       16        1    11.937       89     30.3    3.615     1.54        5        7     2088  1311_RCP85_rainfed_15April_sandy.PRM
  Tot(73)       15        4     2089    991.5    419.3   1561.2   836.00      0.0    991.5      0.0    809.0      0.0     83.1       23     76.4     76.4      100     0.000     0.000     0.000     0.000       76        0        0        0        0       33        0     7.944       59     30.3    2.411     1.52        4        7     2089  1311_RCP85_rainfed_15April_sandy.PRM
  Tot(74)       15        4     2090    407.3    432.3   1560.3   845.00      0.0    407.3      0.0    224.4      0.0    108.4       25     34.1     34.1       95     0.000     0.000     0.000     0.000       74        0        0        0        0       61        2     2.447       19     29.5    0.722     0.51        2        7     2090  1311_RCP85_rainfed_15April_sandy.PRM
  Tot(75)       15        4     2091    720.4    431.5   1559.9   854.00      0.0    720.4      0.0    535.4      0.0    119.8       33     44.7     44.7       75     0.000     0.000     0.000     0.000       52        0        0        0        0       48       22     2.651       22      6.1    0.161     0.12        2        7     2091  1311_RCP85_rainfed_15April_sandy.PRM
  Tot(76)       15        4     2092   1109.1    369.9   1557.8   863.00      0.0   1109.1      0.0    739.2      0.0    140.5       64    132.7    132.7       93     0.000     0.000     0.000     0.000       78        0        0        0        0       15        2    12.013       89     30.0    3.604     1.32        6        7     2092  1311_RCP85_rainfed_15April_sandy.PRM
  Tot(77)       15        4     2093    659.8    374.6   1574.2   872.00      0.0    659.8      0.0    486.2      0.0     94.7       32     78.1     78.1      100     0.000     0.000     0.000     0.000       77        0        0        0        0       29        0     9.044       69     30.0    2.713     1.59        5        7     2093  1311_RCP85_rainfed_15April_sandy.PRM
  Tot(78)       15        4     2094    955.6    346.7   1564.6   881.00      0.0    955.6      0.0    689.3      0.0    109.0       47    108.3    108.3      100     0.000     0.000     0.000     0.000       78        0        0        0        0        9        0    12.057       90     30.1    3.627     1.68        6        7     2094  1311_RCP85_rainfed_15April_sandy.PRM
  Tot(79)       15        4     2095    937.4    313.2   1572.3   890.00      0.0    937.4      0.0    707.3      0.0    110.2       59    105.7    105.7       93     0.000     0.000     0.000     0.000       79        0        0        0        0       18        2    12.140       89     30.2    3.669     1.70        7        7     2095  1311_RCP85_rainfed_15April_sandy.PRM
  Tot(80)       15        4     2096   1058.3    418.3   1560.8   899.00      0.0   1058.3      0.0    781.3      0.0    117.8       41    107.8    107.8       88     0.000     0.000     0.000     0.000       77        0        0        0        0       31        4     8.582       65     30.4    2.606     1.16        5        7     2096  1311_RCP85_rainfed_15April_sandy.PRM
  Tot(81)       15        4     2097   1134.0    360.4   1567.0   908.00      0.0   1134.0      0.0    939.0      0.0     89.5       34     89.6     89.6       99     0.000     0.000     0.000     0.000       77        0        0        0        0       18        0    10.982       81     30.1    3.301     1.85        5        7     2097  1311_RCP85_rainfed_15April_sandy.PRM
  Tot(82)       15        4     2098    817.8    344.5   1563.3   917.00      0.0    817.8      0.0    583.2      0.0     96.6       43    114.0    114.0      100     0.000     0.000     0.000     0.000       77        0        0        0        0        9        0    12.437       92     30.0    3.731     1.78        5        7     2098  1311_RCP85_rainfed_15April_sandy.PRM
  Tot(83)       15        4     2099   1722.0    326.6   1566.2   927.00      0.0   1722.0      0.0   1482.6      0.0    105.1       47     96.8     96.8      100     0.000     0.000     0.000     0.000       78        0        0        0        0        6        0    13.060       94     30.0    3.918     1.95        6        7     2099  1311_RCP85_rainfed_15April_sandy.PRM
