AquaCrop 6.0 (March 2017) - Output created on (date) : 28/06/2021   at (time) : 14:51:49

    RunNr     Day1   Month1    Year1     Rain      ETo       GD     CO2      Irri   Infilt   Runoff    Drain   Upflow        E     E/Ex       Tr      TrW   Tr/Trx    SaltIn   SaltOut    SaltUp  SaltProf     Cycle   SaltStr  FertStr  WeedStr  TempStr   ExpStr   StoStr  BioMass  Brelative   HI     Yield     WPet     DayN   MonthN    YearN
                                           mm       mm    °C.day    ppm        mm       mm       mm       mm       mm       mm        %       mm       mm        %    ton/ha    ton/ha    ton/ha    ton/ha      days       %        %        %        %        %        %    ton/ha        %       %    ton/ha    kg/m3
   Tot(1)       15        3     2017    341.6    510.7   1568.7   407.00    270.3    341.6      0.0    197.2      0.0    190.6       71    231.9    231.9      100     0.000     0.000     0.000     0.000       85        0        0        0        0        2        0    13.825       99     30.0    4.148     0.99       13        6     2017  1311_RCP85_net_15March_sandyloam.PRM
   Tot(2)       15        3     2018    128.4    548.1   1560.9   410.00    401.5    128.4      0.0     36.7      0.0    221.4       83    268.2    268.2      100     0.000     0.000     0.000     0.000       84        0        0        0        0        1        0    13.387       99     30.0    4.019     0.83       13        6     2018  1311_RCP85_net_15March_sandyloam.PRM
   Tot(3)       15        3     2019    108.5    553.0   1561.9   413.00    352.6    108.5      0.0      3.2      0.0    205.9       78    263.4    263.4      100     0.000     0.000     0.000     0.000       83        0        0        0        0        1        0    13.197       99     30.0    3.962     0.85       11        6     2019  1311_RCP85_net_15March_sandyloam.PRM
   Tot(4)       15        3     2020     97.1    565.5   1565.9   416.00    375.0     97.1      0.0      0.0      0.0    216.7       75    257.8    257.8      100     0.000     0.000     0.000     0.000       84        0        0        0        1        1        0    13.086       99     30.0    3.928     0.83       13        6     2020  1311_RCP85_net_15March_sandyloam.PRM
   Tot(5)       15        3     2021    115.5    571.4   1572.9   419.00    400.7    115.5      0.0     23.3      0.0    218.7       79    272.2    272.2      100     0.000     0.000     0.000     0.000       86        0        0        0        0        1        0    13.468       99     30.0    4.043     0.83       13        6     2021  1311_RCP85_net_15March_sandyloam.PRM
   Tot(6)       15        3     2022     23.8    627.0   1569.2   422.00    467.7     23.8      0.0      0.0      0.0    222.5       75    287.7    287.7      100     0.000     0.000     0.000     0.000       82        0        0        0        0        2        0    13.152       99     30.0    3.949     0.78       10        6     2022  1311_RCP85_net_15March_sandyloam.PRM
   Tot(7)       15        3     2023    181.7    535.6   1569.7   425.00    367.1    181.7      0.0     66.1      0.0    217.3       84    260.6    260.6      100     0.000     0.000     0.000     0.000       85        0        0        0        0        1        0    13.624       99     30.0    4.091     0.86       13        6     2023  1311_RCP85_net_15March_sandyloam.PRM
   Tot(8)       15        3     2024    241.6    552.9   1569.6   428.00    344.4    241.6      0.0    139.8      0.0    171.5       58    256.2    256.2      100     0.000     0.000     0.000     0.000       86        0        0        0        1        2        0    13.167       98     30.0    3.952     0.93       14        6     2024  1311_RCP85_net_15March_sandyloam.PRM
   Tot(9)       15        3     2025     96.1    574.8   1570.0   431.00    359.8     96.1      0.0      0.0      0.0    219.6       74    246.2    246.2      100     0.000     0.000     0.000     0.000       82        0        0        0        0        1        0    13.189       99     30.0    3.960     0.86       11        6     2025  1311_RCP85_net_15March_sandyloam.PRM
  Tot(10)       15        3     2026    136.6    550.3   1578.2   435.00    302.6    136.6      0.0     37.0      0.0    191.5       69    229.2    229.2      100     0.000     0.000     0.000     0.000       86        0        0        0        1        0        0    13.712       99     30.0    4.115     0.99       14        6     2026  1311_RCP85_net_15March_sandyloam.PRM
  Tot(11)       15        3     2027    105.2    615.6   1572.5   438.00    431.9    105.2      0.0      9.1      0.0    229.5       75    289.6    289.6      100     0.000     0.000     0.000     0.000       84        0        0        0        0        2        0    13.284       99     30.0    3.990     0.77       13        6     2027  1311_RCP85_net_15March_sandyloam.PRM
  Tot(12)       15        3     2028     91.4    574.1   1562.5   442.00    379.1     91.4      0.0     31.1      0.0    203.4       69    248.2    248.2      100     0.000     0.000     0.000     0.000       82        0        0        0        0        1        0    13.258       99     30.0    3.980     0.89       10        6     2028  1311_RCP85_net_15March_sandyloam.PRM
  Tot(13)       15        3     2029    131.4    517.1   1572.7   445.00    316.0    131.4      0.0     32.8      0.0    187.1       71    225.7    225.7      100     0.000     0.000     0.000     0.000       82        0        0        0        0        1        0    13.277       99     30.0    3.985     0.97       10        6     2029  1311_RCP85_net_15March_sandyloam.PRM
  Tot(14)       15        3     2030    181.1    562.0   1572.3   449.00    317.9    181.1      0.0     57.0      0.0    202.6       72    249.5    249.5      100     0.000     0.000     0.000     0.000       83        0        0        0        0        1        0    13.561       99     30.0    4.071     0.91       11        6     2030  1311_RCP85_net_15March_sandyloam.PRM
  Tot(15)       15        3     2031     73.1    594.0   1562.9   452.00    379.9     73.1      0.0      0.0      0.0    203.0       67    261.1    261.1      100     0.000     0.000     0.000     0.000       81        0        0        0        0        2        0    13.550       99     30.0    4.066     0.88        9        6     2031  1311_RCP85_net_15March_sandyloam.PRM
  Tot(16)       15        3     2032     97.1    601.2   1574.8   456.00    401.0     97.1      0.0      6.5      0.0    219.6       75    276.8    276.8      100     0.000     0.000     0.000     0.000       82        0        0        0        0        1        0    12.932       99     29.7    3.837     0.78        9        6     2032  1311_RCP85_net_15March_sandyloam.PRM
  Tot(17)       15        3     2033     77.9    603.1   1575.8   460.00    427.8     77.9      0.0     13.2      0.0    222.7       74    273.0    273.0      100     0.000     0.000     0.000     0.000       83        0        0        0        0        2        0    13.117       99     30.0    3.938     0.80       11        6     2033  1311_RCP85_net_15March_sandyloam.PRM
  Tot(18)       15        3     2034    134.1    537.8   1562.7   464.00    298.0    134.1      0.0     14.4      0.0    201.9       73    234.4    234.4      100     0.000     0.000     0.000     0.000       84        0        0        0        0        2        0    13.965       99     30.0    4.191     0.97       12        6     2034  1311_RCP85_net_15March_sandyloam.PRM
  Tot(19)       15        3     2035    233.0    506.2   1572.2   468.00    278.8    233.0      0.0    100.1      0.0    178.8       69    233.6    233.6      100     0.000     0.000     0.000     0.000       85        0        0        0        0        1        0    13.820       99     30.0    4.149     1.02       13        6     2035  1311_RCP85_net_15March_sandyloam.PRM
  Tot(20)       15        3     2036    256.4    490.5   1571.4   472.00    271.4    256.4      0.0    109.3      0.0    203.7       77    211.7    211.7      100     0.000     0.000     0.000     0.000       87        0        0        0        1        1        0    13.774       99     30.0    4.133     1.00       15        6     2036  1311_RCP85_net_15March_sandyloam.PRM
  Tot(21)       15        3     2037    275.4    513.6   1573.0   476.00    324.2    275.4      0.0    165.2      0.0    183.4       71    244.3    244.3      100     0.000     0.000     0.000     0.000       86        0        0        0        0        1        0    13.760       99     30.0    4.131     0.97       14        6     2037  1311_RCP85_net_15March_sandyloam.PRM
  Tot(22)       15        3     2038    165.0    519.6   1557.4   481.00    289.5    165.0      0.0     18.7      0.0    183.3       66    232.5    232.5      100     0.000     0.000     0.000     0.000       86        0        0        0        0        1        0    13.711       99     30.0    4.113     0.99       13        6     2038  1311_RCP85_net_15March_sandyloam.PRM
  Tot(23)       15        3     2039    175.6    583.1   1568.4   485.00    330.9    175.6      0.0     63.8      0.0    197.4       64    248.5    248.5      100     0.000     0.000     0.000     0.000       82        0        0        0        0        2        0    13.245       98     30.0    3.975     0.90       10        6     2039  1311_RCP85_net_15March_sandyloam.PRM
  Tot(24)       15        3     2040    183.8    588.8   1561.0   489.00    440.0    183.8      0.0    116.9      0.0    224.3       77    283.3    283.3      100     0.000     0.000     0.000     0.000       82        0        0        0        0        2        0    13.112       99     14.2    1.866     0.37       10        6     2040  1311_RCP85_net_15March_sandyloam.PRM
  Tot(25)       15        3     2041     62.4    581.1   1571.2   494.00    346.6     62.4      0.0      0.0      0.0    186.9       61    240.2    240.2      100     0.000     0.000     0.000     0.000       81        0        0        0        0        2        0    13.159       98     30.0    3.950     0.93        9        6     2041  1311_RCP85_net_15March_sandyloam.PRM
  Tot(26)       15        3     2042    162.0    499.3   1561.9   499.00    273.5    162.0      0.0     34.7      0.0    186.9       82    231.8    231.8      100     0.000     0.000     0.000     0.000       82        0        0        0        0        1        0    13.513       99     30.0    4.056     0.98        9        6     2042  1311_RCP85_net_15March_sandyloam.PRM
  Tot(27)       15        3     2043    220.1    557.6   1564.2   504.00    276.8    220.1      0.0     90.2      0.0    173.3       58    235.6    235.6      100     0.000     0.000     0.000     0.000       82        0        0        0        0        2        0    13.496       98     30.0    4.050     0.99        9        6     2043  1311_RCP85_net_15March_sandyloam.PRM
  Tot(28)       15        3     2044    113.9    531.9   1573.2   508.00    369.8    113.9      0.0     35.7      0.0    204.3       78    247.0    247.0      100     0.000     0.000     0.000     0.000       80        0        0        0        0        1        0    13.051       99     30.0    3.917     0.87        7        6     2044  1311_RCP85_net_15March_sandyloam.PRM
  Tot(29)       15        3     2045    156.4    551.3   1560.7   513.00    384.5    156.4      0.0     57.5      0.0    196.1       71    257.1    257.1      100     0.000     0.000     0.000     0.000       80        0        0        0        0        2        0    12.966       99     30.0    3.893     0.86        8        6     2045  1311_RCP85_net_15March_sandyloam.PRM
  Tot(30)       15        3     2046      9.6    622.2   1564.7   519.00    466.3      9.6      0.0      0.0      0.0    223.5       73    270.8    270.8      100     0.000     0.000     0.000     0.000       76        0        0        0        0        2        0    12.616       99     30.0    3.789     0.77        5        6     2046  1311_RCP85_net_15March_sandyloam.PRM
  Tot(31)       15        3     2047    117.8    560.6   1567.9   524.00    348.8    117.8      0.0     19.3      0.0    208.4       77    248.6    248.6      100     0.000     0.000     0.000     0.000       81        0        0        0        0        1        0    13.129       99     30.0    3.941     0.87        9        6     2047  1311_RCP85_net_15March_sandyloam.PRM
  Tot(32)       15        3     2048    218.6    514.0   1569.5   529.00    287.8    218.6      0.0     74.9      0.0    189.7       74    240.7    240.7      100     0.000     0.000     0.000     0.000       83        0        0        0        0        1        0    13.513       99     30.0    4.056     0.94       11        6     2048  1311_RCP85_net_15March_sandyloam.PRM
  Tot(33)       15        3     2049    199.3    531.0   1562.1   535.00    327.0    199.3      0.0     77.0      0.0    223.4       83    232.2    232.2      100     0.000     0.000     0.000     0.000       82        0        0        0        0        1        0    13.730       99     30.0    4.120     0.91       10        6     2049  1311_RCP85_net_15March_sandyloam.PRM
  Tot(34)       15        3     2050    361.5    486.8   1558.3   541.00    249.1    361.5      0.0    186.8      0.0    194.4       75    206.4    206.4      100     0.000     0.000     0.000     0.000       86        0        0        0        1        1        0    14.066       99     30.0    4.221     1.06       14        6     2050  1311_RCP85_net_15March_sandyloam.PRM
  Tot(35)       15        3     2051    106.3    555.7   1568.1   546.00    332.0    106.3      0.0     23.2      0.0    216.3       73    217.4    217.4      100     0.000     0.000     0.000     0.000       80        0        0        0        0        1        0    13.372       98     30.0    4.013     0.93        7        6     2051  1311_RCP85_net_15March_sandyloam.PRM
  Tot(36)       15        3     2052    118.0    567.2   1565.6   552.00    308.0    118.0      0.0     17.4      0.0    202.1       67    225.9    225.9      100     0.000     0.000     0.000     0.000       80        0        0        0        0        2        0    13.296       98     30.0    3.992     0.94        7        6     2052  1311_RCP85_net_15March_sandyloam.PRM
  Tot(37)       15        3     2053    129.2    563.7   1574.5   558.00    340.4    129.2      0.0     27.1      0.0    209.7       72    240.3    240.3      100     0.000     0.000     0.000     0.000       81        0        0        0        0        2        0    13.265       98     30.0    3.981     0.89        8        6     2053  1311_RCP85_net_15March_sandyloam.PRM
  Tot(38)       15        3     2054     74.1    567.9   1559.1   564.00    381.4     74.1      0.0      0.9      0.0    207.8       76    254.5    254.5      100     0.000     0.000     0.000     0.000       78        0        0        0        0        2        0    12.978       99     30.0    3.896     0.84        5        6     2054  1311_RCP85_net_15March_sandyloam.PRM
  Tot(39)       15        3     2055    120.4    508.0   1557.9   571.00    281.1    120.4      0.0     20.6      0.0    186.9       70    210.3    210.3      100     0.000     0.000     0.000     0.000       80        0        0        0        0        1        0    13.297       99     30.0    3.991     1.01        8        6     2055  1311_RCP85_net_15March_sandyloam.PRM
  Tot(40)       15        3     2056    419.9    481.2   1563.3   577.00    256.7    419.9      0.0    222.8      0.0    195.8       80    210.2    210.2      100     0.000     0.000     0.000     0.000       83        0        0        0        0        1        0    13.783       99     30.0    4.136     1.02       11        6     2056  1311_RCP85_net_15March_sandyloam.PRM
  Tot(41)       15        3     2057     90.6    567.5   1560.8   583.00    413.5     90.6      0.0     12.2      0.0    225.4       79    244.4    244.4      100     0.000     0.000     0.000     0.000       77        0        0        0        0        2        0    12.835       98     30.0    3.853     0.82        5        6     2057  1311_RCP85_net_15March_sandyloam.PRM
  Tot(42)       15        3     2058    163.8    509.4   1557.5   590.00    340.5    163.8      0.0     71.3      0.0    203.5       79    233.8    233.8      100     0.000     0.000     0.000     0.000       80        0        0        0        0        1        0    13.298       99     30.0    3.993     0.92        8        6     2058  1311_RCP85_net_15March_sandyloam.PRM
  Tot(43)       15        3     2059    119.1    596.7   1574.8   597.00    368.8    119.1      0.0     35.6      0.0    216.4       72    254.3    254.3      100     0.000     0.000     0.000     0.000       80        0        0        0        0        2        0    13.163       99     30.0    3.950     0.85        8        6     2059  1311_RCP85_net_15March_sandyloam.PRM
  Tot(44)       15        3     2060    111.0    598.5   1562.1   604.00    358.3    111.0      0.0     27.2      0.0    219.2       70    241.8    241.8      100     0.000     0.000     0.000     0.000       80        0        0        0        0        2        0    13.457       98     30.0    4.039     0.88        7        6     2060  1311_RCP85_net_15March_sandyloam.PRM
  Tot(45)       15        3     2061     81.7    510.7   1560.9   611.00    317.0     81.7      0.0      2.3      0.0    186.9       77    227.1    227.1      100     0.000     0.000     0.000     0.000       78        0        0        0        0        1        0    13.063       99     30.0    3.920     0.96        5        6     2061  1311_RCP85_net_15March_sandyloam.PRM
  Tot(46)       15        3     2062    190.7    519.5   1559.6   618.00    230.8    190.7      0.0     54.4      0.0    182.3       62    192.7    192.7      100     0.000     0.000     0.000     0.000       81        0        0        0        0        1        0    13.983       98     30.0    4.196     1.13        9        6     2062  1311_RCP85_net_15March_sandyloam.PRM
  Tot(47)       15        3     2063    251.3    491.0   1573.1   625.00    279.9    251.3      0.0    118.6      0.0    193.6       73    209.4    209.4      100     0.000     0.000     0.000     0.000       83        0        0        0        0        2        0    13.757       99     30.0    4.129     1.03       10        6     2063  1311_RCP85_net_15March_sandyloam.PRM
  Tot(48)       15        3     2064    104.9    523.4   1571.5   632.00    296.9    104.9      0.0      0.0      0.0    189.3       80    232.5    232.5      100     0.000     0.000     0.000     0.000       80        0        0        0        0        1        0    13.526       99     30.0    4.061     0.97        7        6     2064  1311_RCP85_net_15March_sandyloam.PRM
  Tot(49)       15        3     2065    634.1    504.0   1566.8   639.00    274.2    634.1      0.0    463.9      0.0    191.8       73    221.3    221.3      100     0.000     0.000     0.000     0.000       82        0        0        0        0        1        0    13.570       99     30.0    4.072     0.99       10        6     2065  1311_RCP85_net_15March_sandyloam.PRM
  Tot(50)       15        3     2066     72.8    606.5   1570.5   647.00    385.7     72.8      0.0      1.4      0.0    223.6       73    250.6    250.6      100     0.000     0.000     0.000     0.000       77        0        0        0        0        2        0    13.009       98     30.0    3.905     0.83        5        6     2066  1311_RCP85_net_15March_sandyloam.PRM
  Tot(51)       15        3     2067     74.0    525.3   1559.4   654.00    356.3     74.0      0.0      0.0      0.0    200.8       79    236.6    236.6      100     0.000     0.000     0.000     0.000       79        0        0        0        0        2        0    13.270       99     30.0    3.982     0.91        6        6     2067  1311_RCP85_net_15March_sandyloam.PRM
  Tot(52)       15        3     2068    108.0    552.8   1573.5   662.00    305.9    108.0      0.0     16.2      0.0    184.5       63    226.5    226.5      100     0.000     0.000     0.000     0.000       78        0        0        0        0        2        0    13.116       98     30.0    3.937     0.96        5        6     2068  1311_RCP85_net_15March_sandyloam.PRM
  Tot(53)       15        3     2069    252.9    493.7   1558.8   669.00    243.1    252.9      0.0     76.3      0.0    203.3       79    204.9    204.9      100     0.000     0.000     0.000     0.000       82        0        0        0        0        1        0    13.743       99     30.0    4.124     1.02       10        6     2069  1311_RCP85_net_15March_sandyloam.PRM
  Tot(54)       15        3     2070    208.0    515.7   1570.5   677.00    301.8    208.0      0.0    107.0      0.0    180.0       68    220.7    220.7      100     0.000     0.000     0.000     0.000       80        0        0        0        0        2        0    13.031       99     30.0    3.911     0.98        7        6     2070  1311_RCP85_net_15March_sandyloam.PRM
  Tot(55)       15        3     2071    378.2    432.7   1567.1   685.00    126.2    378.2      0.0    128.0      0.0    170.7       74    169.9    169.9      100     0.000     0.000     0.000     0.000       83        0        0        0        0        1        0    14.297       99     30.0    4.289     1.26       10        6     2071  1311_RCP85_net_15March_sandyloam.PRM
  Tot(56)       15        3     2072    223.1    519.8   1569.2   693.00    265.2    223.1      0.0    101.7      0.0    194.8       64    192.9    192.9      100     0.000     0.000     0.000     0.000       80        0        0        0        0        2        0    13.379       98     30.0    4.014     1.04        7        6     2072  1311_RCP85_net_15March_sandyloam.PRM
  Tot(57)       15        3     2073     48.7    585.8   1568.2   701.00    397.3     48.7      0.0      4.2      0.0    206.5       73    253.9    253.9      100     0.000     0.000     0.000     0.000       75        0        0        0        0        2        0    12.689       99     24.7    3.138     0.69        2        6     2073  1311_RCP85_net_15March_sandyloam.PRM
  Tot(58)       15        3     2074    109.1    541.7   1570.8   709.00    315.8    109.1      0.0     20.5      0.0    194.2       69    220.2    220.2      100     0.000     0.000     0.000     0.000       77        0        0        0        0        2        0    13.017       99     30.0    3.906     0.95        5        6     2074  1311_RCP85_net_15March_sandyloam.PRM
  Tot(59)       15        3     2075     82.5    597.0   1568.1   717.00    352.3     82.5      0.0      0.0      0.0    210.4       69    243.4    243.4      100     0.000     0.000     0.000     0.000       77        0        0        0        0        2        0    12.899       98     30.0    3.871     0.86        4        6     2075  1311_RCP85_net_15March_sandyloam.PRM
  Tot(60)       15        3     2076    436.4    438.8   1563.3   725.00    222.9    436.4      0.0    244.7      0.0    217.4       85    170.6    170.6      100     0.000     0.000     0.000     0.000       82        0        0        0        0        1        0    13.992       99     30.0    4.198     1.08        9        6     2076  1311_RCP85_net_15March_sandyloam.PRM
  Tot(61)       15        3     2077    287.5    501.4   1558.2   733.00    203.8    287.5      0.0    151.3      0.0    174.7       61    180.0    180.0      100     0.000     0.000     0.000     0.000       79        0        0        0        0        2        0    13.537       98     30.0    4.061     1.15        7        6     2077  1311_RCP85_net_15March_sandyloam.PRM
  Tot(62)       15        3     2078    105.2    548.6   1575.5   742.00    353.0    105.2      0.0     28.8      0.0    191.6       70    237.2    237.2      100     0.000     0.000     0.000     0.000       76        0        0        0        0        2        0    12.569       99     28.7    3.604     0.85        4        6     2078  1311_RCP85_net_15March_sandyloam.PRM
  Tot(63)       15        3     2079    290.2    555.1   1560.4   750.00    338.2    290.2      0.0    101.1      0.0    205.2       76    238.5    238.5      100     0.000     0.000     0.000     0.000       78        0        0        0        0        2        0    12.936       99     30.0    3.884     0.88        5        6     2079  1311_RCP85_net_15March_sandyloam.PRM
  Tot(64)       15        3     2080    489.8    500.5   1570.0   758.00    286.6    489.8      0.0    376.4      0.0    189.0       74    216.3    216.3      100     0.000     0.000     0.000     0.000       78        0        0        0        0        2        0    13.308       99     30.0    3.997     1.00        5        6     2080  1311_RCP85_net_15March_sandyloam.PRM
  Tot(65)       15        3     2081    280.2    558.5   1558.4   767.00    274.2    280.2      0.0    121.6      0.0    177.7       59    228.3    228.3      100     0.000     0.000     0.000     0.000       78        0        0        0        0        2        0    13.001       97     30.0    3.901     0.96        5        6     2081  1311_RCP85_net_15March_sandyloam.PRM
  Tot(66)       15        3     2082    534.6    395.0   1570.1   775.00    129.7    534.6      0.0    342.3      0.0    170.2       77    157.2    157.2      100     0.000     0.000     0.000     0.000       84        0        0        0        0        0        0    14.241       99     30.0    4.273     1.32       11        6     2082  1311_RCP85_net_15March_sandyloam.PRM
  Tot(67)       15        3     2083    232.8    579.4   1569.2   784.00    333.1    232.8      0.0    122.0      0.0    233.1       76    218.9    218.9      100     0.000     0.000     0.000     0.000       78        0        0        0        0        2        0    13.114       98     30.0    3.936     0.88        5        6     2083  1311_RCP85_net_15March_sandyloam.PRM
  Tot(68)       15        3     2084    184.3    544.9   1570.5   792.00    239.7    184.3      0.0      9.7      0.0    219.5       76    204.1    204.1      100     0.000     0.000     0.000     0.000       78        0        0        0        0        1        0    13.296       98     30.0    3.990     0.95        5        6     2084  1311_RCP85_net_15March_sandyloam.PRM
  Tot(69)       15        3     2085    201.0    494.2   1571.9   801.00    312.4    201.0      0.0    107.7      0.0    190.8       77    204.3    204.3      100     0.000     0.000     0.000     0.000       78        0        0        0        0        1        0    12.845       99     30.0    3.856     0.98        5        6     2085  1311_RCP85_net_15March_sandyloam.PRM
  Tot(70)       15        3     2086    123.9    503.7   1575.1   810.00    270.3    123.9      0.0     39.9      0.0    183.8       66    182.4    182.4      100     0.000     0.000     0.000     0.000       77        0        0        0        0        2        0    12.959       98     30.0    3.891     1.07        4        6     2086  1311_RCP85_net_15March_sandyloam.PRM
  Tot(71)       15        3     2087    200.7    553.3   1562.8   818.00    262.8    200.7      0.0     85.5      0.0    194.5       63    198.2    198.2      100     0.000     0.000     0.000     0.000       76        0        0        0        0        2        0    12.902       98     30.0    3.871     0.99        3        6     2087  1311_RCP85_net_15March_sandyloam.PRM
  Tot(72)       15        3     2088    243.3    532.3   1571.3   827.00    264.3    243.3      0.0    101.8      0.0    199.6       70    198.2    198.2      100     0.000     0.000     0.000     0.000       78        0        0        0        0        2        0    13.333       98     30.0    4.002     1.02        5        6     2088  1311_RCP85_net_15March_sandyloam.PRM
  Tot(73)       15        3     2089     86.3    578.7   1566.3   836.00    363.0     86.3      0.0     33.6      0.0    185.2       62    240.0    240.0      100     0.000     0.000     0.000     0.000       75        0        0        0        0        2        0    12.478       98      3.5    0.438     0.10        2        6     2089  1311_RCP85_net_15March_sandyloam.PRM
  Tot(74)       15        3     2090     46.7    562.0   1575.6   845.00    356.5     46.7      0.0      0.0      0.0    193.2       70    228.6    228.6      100     0.000     0.000     0.000     0.000       75        0        0        0        0        2        0    12.771       99     30.0    3.834     0.92        2        6     2090  1311_RCP85_net_15March_sandyloam.PRM
  Tot(75)       15        3     2091    171.8    523.0   1559.3   854.00    283.5    171.8      0.0     79.7      0.0    205.8       74    188.4    188.4      100     0.000     0.000     0.000     0.000       77        0        0        0        0        1        0    13.311       99     30.0    3.997     1.02        4        6     2091  1311_RCP85_net_15March_sandyloam.PRM
  Tot(76)       15        3     2092    292.2    478.5   1565.3   863.00    173.8    292.2      0.0     81.2      0.0    192.1       78    184.7    184.7      100     0.000     0.000     0.000     0.000       78        0        0        0        0        1        0    13.319       99     30.0    3.996     1.07        5        6     2092  1311_RCP85_net_15March_sandyloam.PRM
  Tot(77)       15        3     2093    169.7    494.1   1567.9   872.00    295.5    169.7      0.0     57.2      0.0    195.6       82    213.7    213.7      100     0.000     0.000     0.000     0.000       76        0        0        0        0        1        0    12.745       99     30.0    3.826     0.94        3        6     2093  1311_RCP85_net_15March_sandyloam.PRM
  Tot(78)       15        3     2094    326.1    465.4   1572.1   881.00    217.1    326.1      0.0    174.3      0.0    187.1       78    187.7    187.7      100     0.000     0.000     0.000     0.000       79        0        0        0        0        1        0    13.499       99     30.0    4.052     1.09        6        6     2094  1311_RCP85_net_15March_sandyloam.PRM
  Tot(79)       15        3     2095    210.3    467.5   1570.5   890.00    184.7    210.3      0.0     44.0      0.0    180.8       70    161.8    161.8      100     0.000     0.000     0.000     0.000       77        0        0        0        0        1        0    13.275       99     30.0    3.983     1.17        5        6     2095  1311_RCP85_net_15March_sandyloam.PRM
  Tot(80)       15        3     2096    248.7    546.4   1567.3   899.00    214.2    248.7      0.0     99.3      0.0    176.3       64    204.6    204.6      100     0.000     0.000     0.000     0.000       77        0        0        0        0        1        0    13.174       99     30.0    3.954     1.05        4        6     2096  1311_RCP85_net_15March_sandyloam.PRM
  Tot(81)       15        3     2097    132.4    540.3   1573.2   908.00    292.3    132.4      0.0     45.4      0.0    178.2       60    206.6    206.6      100     0.000     0.000     0.000     0.000       75        0        0        0        0        2        0    12.545       98     30.0    3.765     0.98        2        6     2097  1311_RCP85_net_15March_sandyloam.PRM
  Tot(82)       15        3     2098    197.8    505.0   1573.0   917.00    233.5    197.8      0.0     50.0      0.0    188.2       69    185.1    185.1      100     0.000     0.000     0.000     0.000       77        0        0        0        0        2        0    13.030       98     30.0    3.909     1.05        4        6     2098  1311_RCP85_net_15March_sandyloam.PRM
  Tot(83)       15        3     2099    439.5    497.2   1574.3   927.00    223.7    439.5      0.0    238.5      0.0    169.4       64    197.8    197.8      100     0.000     0.000     0.000     0.000       77        0        0        0        0        2        0    12.898       98     30.0    3.872     1.06        4        6     2099  1311_RCP85_net_15March_sandyloam.PRM
