AquaCrop 6.0 (March 2017) - Output created on (date) : 28/06/2021   at (time) : 14:21:40

    RunNr     Day1   Month1    Year1     Rain      ETo       GD     CO2      Irri   Infilt   Runoff    Drain   Upflow        E     E/Ex       Tr      TrW   Tr/Trx    SaltIn   SaltOut    SaltUp  SaltProf     Cycle   SaltStr  FertStr  WeedStr  TempStr   ExpStr   StoStr  BioMass  Brelative   HI     Yield     WPet     DayN   MonthN    YearN
                                           mm       mm    °C.day    ppm        mm       mm       mm       mm       mm       mm        %       mm       mm        %    ton/ha    ton/ha    ton/ha    ton/ha      days       %        %        %        %        %        %    ton/ha        %       %    ton/ha    kg/m3
   Tot(1)       15        4     2017    558.6    542.5   1565.7   404.00    368.5    558.6      0.0    432.0      0.0    190.2       65    251.8    251.8      100     0.000     0.000     0.000     0.000       79        0        0        0        0        2        0    12.361       98     30.0    3.711     0.84        7        7     2017  1311_RCP45_net_15April_sandyloam.PRM
   Tot(2)       15        4     2018    664.0    467.0   1564.2   407.00    267.7    664.0      0.0    522.8      0.0    181.1       74    224.2    224.2      100     0.000     0.000     0.000     0.000       83        0        0        0        0        1        0    13.327       99     30.0    3.998     0.99       11        7     2018  1311_RCP45_net_15April_sandyloam.PRM
   Tot(3)       15        4     2019    124.3    596.8   1570.5   409.00    406.7    124.3      0.0      1.9      0.0    193.7       62    271.5    271.5      100     0.000     0.000     0.000     0.000       76        0        0        0        0        2        0    11.856       97     16.1    1.912     0.41        4        7     2019  1311_RCP45_net_15April_sandyloam.PRM
   Tot(4)       15        4     2020    418.4    509.9   1565.0   411.00    271.0    418.4      0.0    256.0      0.0    205.8       72    219.4    219.4      100     0.000     0.000     0.000     0.000       81        0        0        0        0        2        0    13.137       98     30.0    3.941     0.93        9        7     2020  1311_RCP45_net_15April_sandyloam.PRM
   Tot(5)       15        4     2021   1107.6    323.4   1561.1   413.00    104.5   1107.6      0.0    918.1      0.0    159.0       81    132.3    132.3      100     0.000     0.000     0.000     0.000       90        0        0        0        1        0        0    14.861       99     30.0    4.458     1.54       19        7     2021  1311_RCP45_net_15April_sandyloam.PRM
   Tot(6)       15        4     2022   1023.2    415.4   1561.3   416.00    164.9   1023.2      0.0    808.1      0.0    168.1       71    189.6    189.6      100     0.000     0.000     0.000     0.000       86        0        0        0        1        1        0    13.775       99     30.0    4.132     1.16       14        7     2022  1311_RCP45_net_15April_sandyloam.PRM
   Tot(7)       15        4     2023    869.3    387.0   1561.8   418.00    159.6    869.3      0.0    578.1      0.0    183.5       78    155.8    155.8      100     0.000     0.000     0.000     0.000       86        0        0        0        1        1        0    14.285       99     30.0    4.286     1.26       14        7     2023  1311_RCP45_net_15April_sandyloam.PRM
   Tot(8)       15        4     2024    358.2    492.2   1563.8   420.00    309.7    358.2      0.0    182.6      0.0    200.6       77    235.3    235.3      100     0.000     0.000     0.000     0.000       82        0        0        0        0        1        0    13.109       98     30.0    3.935     0.90       10        7     2024  1311_RCP45_net_15April_sandyloam.PRM
   Tot(9)       15        4     2025    199.5    597.3   1567.2   423.00    438.1    199.5      0.0     83.3      0.0    290.1       84    258.6    258.6      100     0.000     0.000     0.000     0.000       80        0        0        0        0        3        0    12.598       97     30.0    3.781     0.69        8        7     2025  1311_RCP45_net_15April_sandyloam.PRM
  Tot(10)       15        4     2026    542.7    486.6   1571.2   425.00    191.0    542.7      0.0    286.8      0.0    181.4       66    210.4    210.4      100     0.000     0.000     0.000     0.000       81        0        0        0        0        1        0    13.138       98     30.0    3.942     1.01        9        7     2026  1311_RCP45_net_15April_sandyloam.PRM
  Tot(11)       15        4     2027    257.6    560.2   1567.9   428.00    369.0    257.6      0.0    153.2      0.0    195.7       67    266.9    266.9      100     0.000     0.000     0.000     0.000       76        0        0        0        0        2        0    12.217       98     27.4    3.348     0.73        4        7     2027  1311_RCP45_net_15April_sandyloam.PRM
  Tot(12)       15        4     2028    963.9    415.3   1568.8   430.00    175.8    963.9      0.0    585.8      0.0    184.1       78    188.3    188.3      100     0.000     0.000     0.000     0.000       85        0        0        0        0        1        0    13.795       99     30.0    4.139     1.11       14        7     2028  1311_RCP45_net_15April_sandyloam.PRM
  Tot(13)       15        4     2029     98.6    581.1   1570.6   433.00    342.7     98.6      0.0      6.8      0.0    206.7       67    241.4    241.4      100     0.000     0.000     0.000     0.000       77        0        0        0        0        2        0    12.444       98     30.0    3.737     0.84        5        7     2029  1311_RCP45_net_15April_sandyloam.PRM
  Tot(14)       15        4     2030   1089.4    416.0   1563.8   435.00    176.3   1089.4      0.0    823.5      0.0    183.8       77    187.5    187.5      100     0.000     0.000     0.000     0.000       85        0        0        0        0        1        0    13.855       99     30.0    4.157     1.12       13        7     2030  1311_RCP45_net_15April_sandyloam.PRM
  Tot(15)       15        4     2031    363.7    561.2   1557.9   438.00    368.2    363.7      0.0    219.9      0.0    219.3       78    265.0    265.0      100     0.000     0.000     0.000     0.000       78        0        0        0        0        2        0    12.294       99     19.8    2.432     0.50        6        7     2031  1311_RCP45_net_15April_sandyloam.PRM
  Tot(16)       15        4     2032    315.9    511.1   1562.4   440.00    310.2    315.9      0.0    171.7      0.0    198.2       77    236.4    236.4      100     0.000     0.000     0.000     0.000       78        0        0        0        0        1        0    12.658       99     30.0    3.799     0.88        6        7     2032  1311_RCP45_net_15April_sandyloam.PRM
  Tot(17)       15        4     2033    628.6    449.2   1568.8   443.00    235.5    628.6      0.0    465.1      0.0    194.0       75    196.0    196.0      100     0.000     0.000     0.000     0.000       82        0        0        0        0        1        0    13.322       99     30.0    3.997     1.03       10        7     2033  1311_RCP45_net_15April_sandyloam.PRM
  Tot(18)       15        4     2034    801.8    360.0   1558.1   445.00    153.9    801.8      0.0    556.4      0.0    175.9       83    152.2    152.2      100     0.000     0.000     0.000     0.000       88        0        0        0        1        0        0    14.571       99     30.0    4.371     1.33       16        7     2034  1311_RCP45_net_15April_sandyloam.PRM
  Tot(19)       15        4     2035    200.1    511.2   1567.3   448.00    276.5    200.1      0.0     53.5      0.0    199.4       76    227.6    227.6      100     0.000     0.000     0.000     0.000       78        0        0        0        0        1        0    12.817       99     30.0    3.846     0.90        6        7     2035  1311_RCP45_net_15April_sandyloam.PRM
  Tot(20)       15        4     2036    847.0    393.2   1571.0   450.00    155.5    847.0      0.0    654.9      0.0    185.2       80    163.7    163.7      100     0.000     0.000     0.000     0.000       84        0        0        0        0        1        0    13.736       99     30.0    4.123     1.19       12        7     2036  1311_RCP45_net_15April_sandyloam.PRM
  Tot(21)       15        4     2037    511.9    454.9   1569.9   453.00    276.6    511.9      0.0    366.8      0.0    192.3       74    204.2    204.2      100     0.000     0.000     0.000     0.000       83        0        0        0        0        1        0    13.343       99     30.0    4.003     1.01       11        7     2037  1311_RCP45_net_15April_sandyloam.PRM
  Tot(22)       15        4     2038   1099.9    447.0   1562.1   456.00    197.6   1099.9      0.0    913.1      0.0    182.0       71    198.4    198.4      100     0.000     0.000     0.000     0.000       84        0        0        0        0        1        0    13.480       99     30.0    4.046     1.07       12        7     2038  1311_RCP45_net_15April_sandyloam.PRM
  Tot(23)       15        4     2039    541.0    377.1   1560.3   458.00    122.1    541.0      0.0    291.1      0.0    164.6       74    157.6    157.6      100     0.000     0.000     0.000     0.000       83        0        0        0        0        0        0    13.841       99     30.0    4.153     1.29       11        7     2039  1311_RCP45_net_15April_sandyloam.PRM
  Tot(24)       15        4     2040    617.3    431.9   1559.2   461.00    264.5    617.3      0.0    406.3      0.0    178.3       74    197.7    197.7      100     0.000     0.000     0.000     0.000       80        0        0        0        0        1        0    13.038       98     30.0    3.913     1.04        8        7     2040  1311_RCP45_net_15April_sandyloam.PRM
  Tot(25)       15        4     2041    139.4    581.7   1563.1   463.00    414.0    139.4      0.0     51.9      0.0    234.1       76    261.1    261.1      100     0.000     0.000     0.000     0.000       77        0        0        0        0        2        0    12.430       98     18.7    2.326     0.47        5        7     2041  1311_RCP45_net_15April_sandyloam.PRM
  Tot(26)       15        4     2042    210.5    501.0   1563.8   466.00    360.0    210.5      0.0     82.6      0.0    192.6       80    255.9    255.9      100     0.000     0.000     0.000     0.000       77        0        0        0        0        2        0    12.448       99     22.0    2.733     0.61        5        7     2042  1311_RCP45_net_15April_sandyloam.PRM
  Tot(27)       15        4     2043    490.7    497.9   1562.3   469.00    243.2    490.7      0.0    296.8      0.0    211.8       74    209.2    209.2      100     0.000     0.000     0.000     0.000       80        0        0        0        0        2        0    13.305       98     30.0    3.993     0.95        8        7     2043  1311_RCP45_net_15April_sandyloam.PRM
  Tot(28)       15        4     2044    885.5    407.1   1566.2   471.00    202.8    885.5      0.0    702.5      0.0    185.9       79    174.2    174.2      100     0.000     0.000     0.000     0.000       81        0        0        0        0        1        0    13.471       99     30.0    4.041     1.12        9        7     2044  1311_RCP45_net_15April_sandyloam.PRM
  Tot(29)       15        4     2045    883.4    373.6   1564.0   474.00    153.2    883.4      0.0    670.4      0.0    171.8       86    175.7    175.7      100     0.000     0.000     0.000     0.000       85        0        0        0        0        0        0    14.011       99     30.0    4.205     1.22       14        7     2045  1311_RCP45_net_15April_sandyloam.PRM
  Tot(30)       15        4     2046    957.9    378.9   1561.6   476.00    159.3    957.9      0.0    793.1      0.0    166.1       70    150.8    150.8      100     0.000     0.000     0.000     0.000       86        0        0        0        0        1        0    14.146       99     30.0    4.244     1.34       14        7     2046  1311_RCP45_net_15April_sandyloam.PRM
  Tot(31)       15        4     2047    743.9    366.2   1558.9   479.00    146.5    743.9      0.0    567.4      0.0    181.9       81    140.7    140.7      100     0.000     0.000     0.000     0.000       85        0        0        0        0        1        0    14.325       99     30.0    4.298     1.34       13        7     2047  1311_RCP45_net_15April_sandyloam.PRM
  Tot(32)       15        4     2048    451.0    431.7   1566.8   481.00    221.0    451.0      0.0    283.7      0.0    189.1       72    169.3    169.3      100     0.000     0.000     0.000     0.000       82        0        0        0        0        1        0    13.625       98     30.0    4.088     1.14       10        7     2048  1311_RCP45_net_15April_sandyloam.PRM
  Tot(33)       15        4     2049    396.6    515.8   1558.5   484.00    345.3    396.6      0.0    298.4      0.0    184.4       72    251.2    251.2      100     0.000     0.000     0.000     0.000       77        0        0        0        0        2        0    12.543       99     30.0    3.767     0.87        5        7     2049  1311_RCP45_net_15April_sandyloam.PRM
  Tot(34)       15        4     2050    911.6    355.2   1571.0   487.00    114.0    911.6      0.0    635.0      0.0    168.1       88    167.7    167.7      100     0.000     0.000     0.000     0.000       85        0        0        0        0        0        0    14.022       99     30.0    4.207     1.26       14        7     2050  1311_RCP45_net_15April_sandyloam.PRM
  Tot(35)       15        4     2051    587.1    490.5   1562.4   489.00    306.5    587.1      0.0    435.3      0.0    233.6       80    208.6    208.6      100     0.000     0.000     0.000     0.000       79        0        0        0        0        2        0    12.775       98     30.0    3.834     0.87        7        7     2051  1311_RCP45_net_15April_sandyloam.PRM
  Tot(36)       15        4     2052    637.7    486.7   1567.0   492.00    352.8    637.7      0.0    486.2      0.0    208.7       80    231.6    231.6      100     0.000     0.000     0.000     0.000       79        0        0        0        0        2        0    12.634       99     30.0    3.791     0.86        7        7     2052  1311_RCP45_net_15April_sandyloam.PRM
  Tot(37)       15        4     2053    765.7    429.8   1565.7   494.00    174.5    765.7      0.0    564.3      0.0    187.3       71    169.3    169.3      100     0.000     0.000     0.000     0.000       82        0        0        0        0        1        0    13.583       99     30.0    4.075     1.15       10        7     2053  1311_RCP45_net_15April_sandyloam.PRM
  Tot(38)       15        4     2054    862.4    446.5   1567.5   496.00    271.6    862.4      0.0    721.3      0.0    196.8       81    204.3    204.3      100     0.000     0.000     0.000     0.000       80        0        0        0        0        2        0    13.026       99     30.0    3.909     0.98        8        7     2054  1311_RCP45_net_15April_sandyloam.PRM
  Tot(39)       15        4     2055    496.7    469.3   1572.6   498.00    186.8    496.7      0.0    267.5      0.0    191.6       72    191.1    191.1      100     0.000     0.000     0.000     0.000       81        0        0        0        0        1        0    13.538       99     30.0    4.062     1.06        9        7     2055  1311_RCP45_net_15April_sandyloam.PRM
  Tot(40)       15        4     2056    974.4    436.0   1568.8   501.00    206.2    974.4      0.0    817.1      0.0    175.6       68    184.2    184.2      100     0.000     0.000     0.000     0.000       82        0        0        0        0        1        0    13.427       99     30.0    4.031     1.12       10        7     2056  1311_RCP45_net_15April_sandyloam.PRM
  Tot(41)       15        4     2057    826.4    441.0   1558.8   503.00    234.8    826.4      0.0    709.9      0.0    155.0       56    173.5    173.5      100     0.000     0.000     0.000     0.000       81        0        0        0        0        2        0    13.179       98     30.0    3.955     1.21        9        7     2057  1311_RCP45_net_15April_sandyloam.PRM
  Tot(42)       15        4     2058    822.2    378.2   1557.5   505.00    125.7    822.2      0.0    615.5      0.0    177.5       74    142.8    142.8      100     0.000     0.000     0.000     0.000       86        0        0        0        0        1        0    14.456       99     30.0    4.337     1.35       13        7     2058  1311_RCP45_net_15April_sandyloam.PRM
  Tot(43)       15        4     2059   1523.1    349.1   1567.6   507.00    117.5   1523.1      0.0   1290.5      0.0    166.7       81    150.5    150.5      100     0.000     0.000     0.000     0.000       88        0        0        0        1        0        0    14.266       99     30.0    4.281     1.35       16        7     2059  1311_RCP45_net_15April_sandyloam.PRM
  Tot(44)       15        4     2060   1141.7    407.6   1573.9   509.00    208.0   1141.7      0.0    998.1      0.0    171.8       68    165.5    165.5      100     0.000     0.000     0.000     0.000       81        0        0        0        0        1        0    13.263       98     30.0    3.981     1.18        9        7     2060  1311_RCP45_net_15April_sandyloam.PRM
  Tot(45)       15        4     2061    519.8    461.9   1570.7   511.00    301.0    519.8      0.0    408.1      0.0    196.2       78    211.6    211.6      100     0.000     0.000     0.000     0.000       80        0        0        0        0        1        0    12.875       99     30.0    3.864     0.95        8        7     2061  1311_RCP45_net_15April_sandyloam.PRM
  Tot(46)       15        4     2062    703.8    440.3   1565.0   513.00    221.5    703.8      0.0    547.8      0.0    176.6       66    180.8    180.8      100     0.000     0.000     0.000     0.000       81        0        0        0        0        1        0    13.219       98     30.0    3.966     1.11        9        7     2062  1311_RCP45_net_15April_sandyloam.PRM
  Tot(47)       15        4     2063    700.8    438.5   1570.8   514.00    252.9    700.8      0.0    574.9      0.0    175.7       66    176.1    176.1      100     0.000     0.000     0.000     0.000       81        0        0        0        0        2        0    13.496       98     30.0    4.050     1.15        9        7     2063  1311_RCP45_net_15April_sandyloam.PRM
  Tot(48)       15        4     2064   1119.6    420.4   1562.0   516.00    178.1   1119.6      0.0    932.4      0.0    169.8       70    184.9    184.9      100     0.000     0.000     0.000     0.000       83        0        0        0        0        1        0    13.650       99     30.0    4.095     1.16       11        7     2064  1311_RCP45_net_15April_sandyloam.PRM
  Tot(49)       15        4     2065    445.1    530.3   1559.8   518.00    357.9    445.1      0.0    331.8      0.0    188.6       70    259.7    259.7      100     0.000     0.000     0.000     0.000       76        0        0        0        0        2        0    12.411       99      2.7    0.337     0.08        4        7     2065  1311_RCP45_net_15April_sandyloam.PRM
  Tot(50)       15        4     2066    992.0    362.5   1568.6   519.00    180.0    992.0      0.0    790.8      0.0    171.9       85    163.7    163.7      100     0.000     0.000     0.000     0.000       84        0        0        0        0        1        0    13.863       99     30.0    4.159     1.24       12        7     2066  1311_RCP45_net_15April_sandyloam.PRM
  Tot(51)       15        4     2067   1353.7    423.6   1569.2   520.00    196.0   1353.7      0.0   1146.3      0.0    167.1       70    191.4    191.4      100     0.000     0.000     0.000     0.000       82        0        0        0        0        1        0    13.462       99     30.0    4.042     1.13       10        7     2067  1311_RCP45_net_15April_sandyloam.PRM
  Tot(52)       15        4     2068    573.9    448.3   1571.0   522.00    250.1    573.9      0.0    384.8      0.0    185.8       70    188.9    188.9      100     0.000     0.000     0.000     0.000       81        0        0        0        0        2        0    13.191       98     30.0    3.959     1.06        9        7     2068  1311_RCP45_net_15April_sandyloam.PRM
  Tot(53)       15        4     2069   1047.7    362.3   1557.5   523.00    163.1   1047.7      0.0    890.3      0.0    168.0       74    145.6    145.6      100     0.000     0.000     0.000     0.000       84        0        0        0        0        1        0    14.203       99     30.0    4.261     1.36       13        7     2069  1311_RCP45_net_15April_sandyloam.PRM
  Tot(54)       15        4     2070   1350.2    356.0   1558.4   524.00    123.3   1350.2      0.0   1072.2      0.0    179.9       89    155.2    155.2      100     0.000     0.000     0.000     0.000       84        0        0        0        0        0        0    13.650       99     30.0    4.095     1.22       12        7     2070  1311_RCP45_net_15April_sandyloam.PRM
  Tot(55)       15        4     2071    673.1    420.6   1570.7   525.00    175.6    673.1      0.0    492.6      0.0    162.2       62    166.0    166.0      100     0.000     0.000     0.000     0.000       82        0        0        0        0        1        0    13.641       98     30.0    4.093     1.25       10        7     2071  1311_RCP45_net_15April_sandyloam.PRM
  Tot(56)       15        4     2072    687.4    389.7   1567.8   527.00    121.4    687.4      0.0    480.0      0.0    169.7       72    157.2    157.2      100     0.000     0.000     0.000     0.000       82        0        0        0        0        1        0    13.756       99     30.0    4.127     1.27       10        7     2072  1311_RCP45_net_15April_sandyloam.PRM
  Tot(57)       15        4     2073    921.8    449.2   1571.7   527.00    232.1    921.8      0.0    738.6      0.0    172.8       64    186.7    186.7      100     0.000     0.000     0.000     0.000       80        0        0        0        0        2        0    13.038       99     30.0    3.912     1.09        8        7     2073  1311_RCP45_net_15April_sandyloam.PRM
  Tot(58)       15        4     2074   1473.0    279.6   1571.9   528.00     25.6   1473.0      0.0   1231.2      0.0    146.0       81    101.9    101.9      100     0.000     0.000     0.000     0.000       89        0        0        0        0        0        0    15.147       99     30.0    4.544     1.84       17        7     2074  1311_RCP45_net_15April_sandyloam.PRM
  Tot(59)       15        4     2075   1156.3    365.9   1565.4   529.00     90.3   1156.3      0.0    925.0      0.0    148.1       74    162.7    162.7      100     0.000     0.000     0.000     0.000       82        0        0        0        0        0        0    13.650       99     30.0    4.095     1.33       10        7     2075  1311_RCP45_net_15April_sandyloam.PRM
  Tot(60)       15        4     2076    847.1    365.4   1565.7   530.00    155.1    847.1      0.0    671.6      0.0    191.1       76    124.5    124.5      100     0.000     0.000     0.000     0.000       83        0        0        0        0        1        0    14.105       98     30.0    4.232     1.34       11        7     2076  1311_RCP45_net_15April_sandyloam.PRM
  Tot(61)       15        4     2077   1493.2    345.3   1562.4   530.00     88.1   1493.2      0.0   1219.9      0.0    164.0       78    141.1    141.1      100     0.000     0.000     0.000     0.000       83        0        0        0        0        0        0    13.964       99     30.0    4.189     1.38       11        7     2077  1311_RCP45_net_15April_sandyloam.PRM
  Tot(62)       15        4     2078    441.3    416.0   1558.9   531.00    218.5    441.3      0.0    266.2      0.0    181.8       75    173.5    173.5      100     0.000     0.000     0.000     0.000       79        0        0        0        0        1        0    13.284       99     30.0    3.986     1.12        7        7     2078  1311_RCP45_net_15April_sandyloam.PRM
  Tot(63)       15        4     2079    634.8    426.3   1560.5   531.00    240.1    634.8      0.0    485.2      0.0    180.8       80    206.9    206.9      100     0.000     0.000     0.000     0.000       79        0        0        0        0        1        0    12.865       99     30.0    3.860     1.00        7        7     2079  1311_RCP45_net_15April_sandyloam.PRM
  Tot(64)       15        4     2080    702.8    409.1   1574.7   531.00    242.2    702.8      0.0    565.8      0.0    165.7       74    189.8    189.8      100     0.000     0.000     0.000     0.000       79        0        0        0        0        2        0    12.629       99     30.0    3.791     1.07        7        7     2080  1311_RCP45_net_15April_sandyloam.PRM
  Tot(65)       15        4     2081    843.7    395.9   1573.0   531.00    169.9    843.7      0.0    670.4      0.0    170.8       70    157.6    157.6      100     0.000     0.000     0.000     0.000       81        0        0        0        0        1        0    13.527       99     30.0    4.058     1.24        9        7     2081  1311_RCP45_net_15April_sandyloam.PRM
  Tot(66)       15        4     2082   1005.4    380.0   1564.7   531.00    220.1   1005.4      0.0    808.0      0.0    169.6       80    175.1    175.1      100     0.000     0.000     0.000     0.000       84        0        0        0        0        2        0    13.914       99     30.0    4.175     1.21       12        7     2082  1311_RCP45_net_15April_sandyloam.PRM
  Tot(67)       15        4     2083    515.5    521.1   1573.0   532.00    337.2    515.5      0.0    419.0      0.0    192.2       67    234.1    234.1      100     0.000     0.000     0.000     0.000       76        0        0        0        0        2        0    12.352       98     14.5    1.788     0.42        4        7     2083  1311_RCP45_net_15April_sandyloam.PRM
  Tot(68)       15        4     2084   1049.1    391.4   1562.7   532.00    219.7   1049.1      0.0    936.9      0.0    174.7       75    159.0    159.0      100     0.000     0.000     0.000     0.000       79        0        0        0        0        2        0    13.395       99     30.0    4.018     1.21        7        7     2084  1311_RCP45_net_15April_sandyloam.PRM
  Tot(69)       15        4     2085    762.8    417.7   1560.3   532.00    184.4    762.8      0.0    559.0      0.0    179.0       77    183.7    183.7      100     0.000     0.000     0.000     0.000       78        0        0        0        0        1        0    13.066       99     30.0    3.920     1.08        6        7     2085  1311_RCP45_net_15April_sandyloam.PRM
  Tot(70)       15        4     2086   1172.7    388.6   1564.9   532.00    241.2   1172.7      0.0   1052.7      0.0    168.8       73    166.7    166.7      100     0.000     0.000     0.000     0.000       80        0        0        0        0        2        0    13.429       99     30.0    4.029     1.20        8        7     2086  1311_RCP45_net_15April_sandyloam.PRM
  Tot(71)       15        4     2087    557.3    432.8   1560.2   533.00    178.2    557.3      0.0    349.9      0.0    183.9       75    179.4    179.4      100     0.000     0.000     0.000     0.000       78        0        0        0        0        1        0    13.256       99     30.0    3.978     1.10        6        7     2087  1311_RCP45_net_15April_sandyloam.PRM
  Tot(72)       15        4     2088    931.2    420.8   1563.7   533.00    242.4    931.2      0.0    841.3      0.0    168.0       61    158.5    158.5      100     0.000     0.000     0.000     0.000       80        0        0        0        0        2        0    13.520       98     30.0    4.056     1.25        8        7     2088  1311_RCP45_net_15April_sandyloam.PRM
  Tot(73)       15        4     2089    651.3    449.9   1567.2   533.00    265.3    651.3      0.0    515.0      0.0    188.6       78    205.6    205.6      100     0.000     0.000     0.000     0.000       76        0        0        0        0        2        0    12.452       99     26.0    3.241     0.83        4        7     2089  1311_RCP45_net_15April_sandyloam.PRM
  Tot(74)       15        4     2090   1368.7    311.9   1558.4   534.00    130.4   1368.7      0.0   1214.9      0.0    158.8       75    103.3    103.3      100     0.000     0.000     0.000     0.000       84        0        0        0        0        0        0    14.684       99     30.0    4.405     1.68       12        7     2090  1311_RCP45_net_15April_sandyloam.PRM
  Tot(75)       15        4     2091    855.3    455.6   1566.7   534.00    253.7    855.3      0.0    661.8      0.0    171.5       65    194.5    194.5      100     0.000     0.000     0.000     0.000       77        0        0        0        0        2        0    12.840       98     30.0    3.852     1.05        5        7     2091  1311_RCP45_net_15April_sandyloam.PRM
  Tot(76)       15        4     2092   1246.4    270.3   1567.4   535.00     42.9   1246.4      0.0   1041.6      0.0    141.5       79     95.1     95.1      100     0.000     0.000     0.000     0.000       86        0        0        0        0        0        0    14.640       99     30.0    4.392     1.87       14        7     2092  1311_RCP45_net_15April_sandyloam.PRM
  Tot(77)       15        4     2093    630.4    423.6   1566.6   535.00    231.0    630.4      0.0    475.7      0.0    186.8       75    181.4    181.4      100     0.000     0.000     0.000     0.000       80        0        0        0        0        2        0    13.165       98     30.0    3.951     1.08        8        7     2093  1311_RCP45_net_15April_sandyloam.PRM
  Tot(78)       15        4     2094    771.3    364.7   1557.5   535.00    137.0    771.3      0.0    553.3      0.0    175.2       83    154.0    154.0      100     0.000     0.000     0.000     0.000       81        0        0        0        0        1        0    13.462       99     30.0    4.039     1.23        8        7     2094  1311_RCP45_net_15April_sandyloam.PRM
  Tot(79)       15        4     2095    674.6    435.4   1557.8   536.00    264.5    674.6      0.0    553.5      0.0    178.6       74    202.7    202.7      100     0.000     0.000     0.000     0.000       79        0        0        0        0        1        0    13.130       99     30.0    3.942     1.03        7        7     2095  1311_RCP45_net_15April_sandyloam.PRM
  Tot(80)       15        4     2096    530.9    413.8   1567.8   536.00    214.1    530.9      0.0    399.9      0.0    163.8       67    174.8    174.8      100     0.000     0.000     0.000     0.000       77        0        0        0        0        1        0    12.836       99     30.0    3.853     1.14        5        7     2096  1311_RCP45_net_15April_sandyloam.PRM
  Tot(81)       15        4     2097   1009.8    417.4   1570.4   537.00    243.1   1009.8      0.0    869.8      0.0    182.7       76    179.1    179.1      100     0.000     0.000     0.000     0.000       78        0        0        0        0        2        0    12.867       99     30.0    3.861     1.07        6        7     2097  1311_RCP45_net_15April_sandyloam.PRM
  Tot(82)       15        4     2098    606.3    450.7   1558.5   537.00    206.6    606.3      0.0    449.9      0.0    170.9       63    185.2    185.2      100     0.000     0.000     0.000     0.000       77        0        0        0        0        2        0    12.797       98     30.0    3.839     1.08        5        7     2098  1311_RCP45_net_15April_sandyloam.PRM
  Tot(83)       15        4     2099    829.8    366.4   1567.7   538.00    155.0    829.8      0.0    647.6      0.0    166.3       76    153.7    153.7      100     0.000     0.000     0.000     0.000       82        0        0        0        0        1        0    13.787       99     30.0    4.136     1.29       10        7     2099  1311_RCP45_net_15April_sandyloam.PRM
