AquaCrop 6.0 (March 2017) - Output created on (date) : 07/06/2021   at (time) : 20:36:37

    RunNr     Day1   Month1    Year1     Rain      ETo       GD     CO2      Irri   Infilt   Runoff    Drain   Upflow        E     E/Ex       Tr      TrW   Tr/Trx    SaltIn   SaltOut    SaltUp  SaltProf     Cycle   SaltStr  FertStr  WeedStr  TempStr   ExpStr   StoStr  BioMass  Brelative   HI     Yield     WPet     DayN   MonthN    YearN
                                           mm       mm    °C.day    ppm        mm       mm       mm       mm       mm       mm        %       mm       mm        %    ton/ha    ton/ha    ton/ha    ton/ha      days       %        %        %        %        %        %    ton/ha        %       %    ton/ha    kg/m3
   Tot(1)       15        3     2017    341.6    510.7   1568.7   407.00      0.0    341.6      0.0    127.4      0.0    102.7       26    118.9    118.9       96     0.000     0.000     0.000     0.000       85        0        0        0        0       43        3     7.422       53     30.6    2.272     1.04       13        6     2017  1311_RCP85_rainfed_15March_sandy.PRM
   Tot(2)       15        3     2018    128.4    548.1   1560.9   410.00      0.0    128.4      0.0     17.3      0.0     95.2       18     33.6     33.6       84     0.000     0.000     0.000     0.000       84        0        0        0        0       61       13     1.814       13     11.3    0.205     0.16       13        6     2018  1311_RCP85_rainfed_15March_sandy.PRM
   Tot(3)       15        3     2019    108.5    553.0   1561.9   413.00      0.0    108.5      0.0      0.0      0.0    114.3       23     41.8     41.8       72     0.000     0.000     0.000     0.000       58        0        0        0        0       51       23     2.316       17      4.0    0.093     0.09       11        6     2019  1311_RCP85_rainfed_15March_sandy.PRM
   Tot(4)       15        3     2020     97.1    565.5   1565.9   416.00      0.0     97.1      0.0      0.0      0.0    102.0       19     44.4     44.4       78     0.000     0.000     0.000     0.000       65        0        0        0        1       52       19     2.505       19     11.1    0.277     0.24       13        6     2020  1311_RCP85_rainfed_15March_sandy.PRM
   Tot(5)       15        3     2021    115.5    571.4   1572.9   419.00      0.0    115.5      0.0      0.0      0.0     87.8       17     48.6     48.6       76     0.000     0.000     0.000     0.000       67        0        0        0        0       52       20     2.536       19     13.1    0.332     0.28       13        6     2021  1311_RCP85_rainfed_15March_sandy.PRM
   Tot(6)       15        3     2022     23.8    627.0   1569.2   422.00      0.0     23.8      0.0      0.0      0.0     42.1        7     33.6     33.6       82     0.000     0.000     0.000     0.000       65        0        0        0        0       60       17     1.705       13     11.3    0.192     0.26       10        6     2022  1311_RCP85_rainfed_15March_sandy.PRM
   Tot(7)       15        3     2023    181.7    535.6   1569.7   425.00      0.0    181.7      0.0     20.8      0.0    124.9       25     37.7     37.7       76     0.000     0.000     0.000     0.000       59        0        0        0        0       56       21     2.094       15      4.1    0.085     0.08       13        6     2023  1311_RCP85_rainfed_15March_sandy.PRM
   Tot(8)       15        3     2024    241.6    552.9   1569.6   428.00      0.0    241.6      0.0     83.1      0.0    104.0       19     38.2     38.2       89     0.000     0.000     0.000     0.000       86        0        0        0        1       57        7     1.888       14     27.6    0.522     0.37       14        6     2024  1311_RCP85_rainfed_15March_sandy.PRM
   Tot(9)       15        3     2025     96.1    574.8   1570.0   431.00      0.0     96.1      0.0      0.0      0.0    100.9       19     50.4     50.4       78     0.000     0.000     0.000     0.000       82        0        0        0        0       54       24     2.756       21     30.2    0.831     0.57       11        6     2025  1311_RCP85_rainfed_15March_sandy.PRM
  Tot(10)       15        3     2026    136.6    550.3   1578.2   435.00      0.0    136.6      0.0     20.9      0.0     82.8       24    101.0    101.0       61     0.000     0.000     0.000     0.000       86        0        0        0        1       33       33     6.578       48     25.5    1.676     0.91       14        6     2026  1311_RCP85_rainfed_15March_sandy.PRM
  Tot(11)       15        3     2027    105.2    615.6   1572.5   438.00      0.0    105.2      0.0      7.2      0.0     78.1       14     53.9     53.9       79     0.000     0.000     0.000     0.000       72        0        0        0        0       55       20     2.554       19     19.0    0.485     0.44       13        6     2027  1311_RCP85_rainfed_15March_sandy.PRM
  Tot(12)       15        3     2028     91.4    574.1   1562.5   442.00      0.0     91.4      0.0      0.0      0.0     73.6       14     49.6     49.6       75     0.000     0.000     0.000     0.000       71        0        0        0        0       53       20     2.812       21     19.7    0.553     0.56       10        6     2028  1311_RCP85_rainfed_15March_sandy.PRM
  Tot(13)       15        3     2029    131.4    517.1   1572.7   445.00      0.0    131.4      0.0      0.0      0.0     89.0       21     68.4     68.4       69     0.000     0.000     0.000     0.000       82        0        0        0        0       49       26     4.248       32     28.8    1.223     0.78       10        6     2029  1311_RCP85_rainfed_15March_sandy.PRM
  Tot(14)       15        3     2030    181.1    562.0   1572.3   449.00      0.0    181.1      0.0     40.8      0.0    118.1       28     82.0     82.0       72     0.000     0.000     0.000     0.000       83        0        0        0        0       42       22     4.550       33     20.9    0.952     0.48       11        6     2030  1311_RCP85_rainfed_15March_sandy.PRM
  Tot(15)       15        3     2031     73.1    594.0   1562.9   452.00      0.0     73.1      0.0      0.0      0.0     77.7       14     51.9     51.9       83     0.000     0.000     0.000     0.000       81        0        0        0        0       56       16     2.730       20     30.1    0.820     0.63        9        6     2031  1311_RCP85_rainfed_15March_sandy.PRM
  Tot(16)       15        3     2032     97.1    601.2   1574.8   456.00      0.0     97.1      0.0      0.8      0.0    102.0       18     44.3     44.3       82     0.000     0.000     0.000     0.000       82        0        0        0        0       52       16     2.201       17     30.1    0.663     0.46        9        6     2032  1311_RCP85_rainfed_15March_sandy.PRM
  Tot(17)       15        3     2033     77.9    603.1   1575.8   460.00      0.0     77.9      0.0      0.0      0.0     75.5       13     35.3     35.3       87     0.000     0.000     0.000     0.000       83        0        0        0        0       64       12     1.706       13     25.8    0.440     0.42       11        6     2033  1311_RCP85_rainfed_15March_sandy.PRM
  Tot(18)       15        3     2034    134.1    537.8   1562.7   464.00      0.0    134.1      0.0      0.0      0.0    125.2       26     42.6     42.6       74     0.000     0.000     0.000     0.000       84        0        0        0        0       53       12     2.352       17     30.4    0.715     0.43       12        6     2034  1311_RCP85_rainfed_15March_sandy.PRM
  Tot(19)       15        3     2035    233.0    506.2   1572.2   468.00      0.0    233.0      0.0     37.1      0.0    108.3       32     88.5     88.5       69     0.000     0.000     0.000     0.000       85        0        0        0        0       34       19     5.524       40     15.7    0.869     0.45       13        6     2035  1311_RCP85_rainfed_15March_sandy.PRM
  Tot(20)       15        3     2036    256.4    490.5   1571.4   472.00      0.0    256.4      0.0     64.1      0.0    131.6       29     58.6     58.6       90     0.000     0.000     0.000     0.000       87        0        0        0        1       50        6     4.022       29     30.0    1.207     0.64       15        6     2036  1311_RCP85_rainfed_15March_sandy.PRM
  Tot(21)       15        3     2037    275.4    513.6   1573.0   476.00      0.0    275.4      0.0     99.8      0.0    109.7       27     59.5     59.5       65     0.000     0.000     0.000     0.000       86        0        0        0        0       45       21     3.259       23     27.5    0.896     0.54       14        6     2037  1311_RCP85_rainfed_15March_sandy.PRM
  Tot(22)       15        3     2038    165.0    519.6   1557.4   481.00      0.0    165.0      0.0      0.0      0.0    103.7       24     75.8     75.8       81     0.000     0.000     0.000     0.000       86        0        0        0        0       44       13     4.643       33     30.0    1.393     0.78       13        6     2038  1311_RCP85_rainfed_15March_sandy.PRM
  Tot(23)       15        3     2039    175.6    583.1   1568.4   485.00      0.0    175.6      0.0     14.9      0.0    102.6       19     66.3     66.3       87     0.000     0.000     0.000     0.000       82        0        0        0        0       51        9     3.626       27     30.4    1.104     0.66       10        6     2039  1311_RCP85_rainfed_15March_sandy.PRM
  Tot(24)       15        3     2040    183.8    588.8   1561.0   489.00      0.0    183.8      0.0     53.7      0.0     97.9       17     35.5     35.5       77     0.000     0.000     0.000     0.000       63        0        0        0        0       59       18     1.866       14      9.1    0.169     0.24       10        6     2040  1311_RCP85_rainfed_15March_sandy.PRM
  Tot(25)       15        3     2041     62.4    581.1   1571.2   494.00      0.0     62.4      0.0      0.0      0.0     71.4       13     40.1     40.1       88     0.000     0.000     0.000     0.000       81        0        0        0        0       61        9     2.152       16     29.9    0.643     0.58        9        6     2041  1311_RCP85_rainfed_15March_sandy.PRM
  Tot(26)       15        3     2042    162.0    499.3   1561.9   499.00      0.0    162.0      0.0     27.7      0.0    106.3       33     93.7     93.7       65     0.000     0.000     0.000     0.000       82        0        0        0        0       35       25     5.936       44     28.0    1.661     0.84        9        6     2042  1311_RCP85_rainfed_15March_sandy.PRM
  Tot(27)       15        3     2043    220.1    557.6   1564.2   504.00      0.0    220.1      0.0     28.6      0.0     98.4       23     95.6     95.6       77     0.000     0.000     0.000     0.000       82        0        0        0        0       46       11     5.490       40     30.7    1.687     0.88        9        6     2043  1311_RCP85_rainfed_15March_sandy.PRM
  Tot(28)       15        3     2044    113.9    531.9   1573.2   508.00      0.0    113.9      0.0      0.0      0.0     95.6       18     37.0     37.0       87     0.000     0.000     0.000     0.000       80        0        0        0        0       61       12     1.946       15     21.6    0.421     0.33        7        6     2044  1311_RCP85_rainfed_15March_sandy.PRM
  Tot(29)       15        3     2045    156.4    551.3   1560.7   513.00      0.0    156.4      0.0      2.7      0.0     81.0       15     42.1     42.1       80     0.000     0.000     0.000     0.000       64        0        0        0        0       57       18     2.236       17     15.1    0.338     0.40        8        6     2045  1311_RCP85_rainfed_15March_sandy.PRM
  Tot(30)       15        3     2046      9.6    622.2   1564.7   519.00      0.0      9.6      0.0      0.0      0.0     28.9        5     33.7     33.7       86     0.000     0.000     0.000     0.000       70        0        0        0        0       65       15     1.642       13     18.4    0.302     0.49        5        6     2046  1311_RCP85_rainfed_15March_sandy.PRM
  Tot(31)       15        3     2047    117.8    560.6   1567.9   524.00      0.0    117.8      0.0     10.8      0.0    102.0       25     64.3     64.3       58     0.000     0.000     0.000     0.000       68        0        0        0        0       41       32     3.886       29     15.2    0.592     0.42        9        6     2047  1311_RCP85_rainfed_15March_sandy.PRM
  Tot(32)       15        3     2048    218.6    514.0   1569.5   529.00      0.0    218.6      0.0     11.4      0.0    109.4       33     97.7     97.7       60     0.000     0.000     0.000     0.000       83        0        0        0        0       36       24     5.742       42     14.2    0.818     0.40       11        6     2048  1311_RCP85_rainfed_15March_sandy.PRM
  Tot(33)       15        3     2049    199.3    531.0   1562.1   535.00      0.0    199.3      0.0     25.8      0.0    106.8       23     73.5     73.5       92     0.000     0.000     0.000     0.000       82        0        0        0        0       49        5     4.588       33     30.0    1.377     0.79       10        6     2049  1311_RCP85_rainfed_15March_sandy.PRM
  Tot(34)       15        3     2050    361.5    486.8   1558.3   541.00      0.0    361.5      0.0    118.1      0.0    116.7       39    103.0    103.0       72     0.000     0.000     0.000     0.000       86        0        0        0        1       28       15     7.489       53     21.6    1.619     0.74       14        6     2050  1311_RCP85_rainfed_15March_sandy.PRM
  Tot(35)       15        3     2051    106.3    555.7   1568.1   546.00      0.0    106.3      0.0      6.3      0.0     73.9       19     95.7     95.7       72     0.000     0.000     0.000     0.000       77        0        0        0        0       30       24     6.226       46     25.3    1.576     0.94        7        6     2051  1311_RCP85_rainfed_15March_sandy.PRM
  Tot(36)       15        3     2052    118.0    567.2   1565.6   552.00      0.0    118.0      0.0      0.0      0.0     93.3       19     68.3     68.3       88     0.000     0.000     0.000     0.000       80        0        0        0        0       51        6     4.166       31     30.9    1.288     0.80        7        6     2052  1311_RCP85_rainfed_15March_sandy.PRM
  Tot(37)       15        3     2053    129.2    563.7   1574.5   558.00      0.0    129.2      0.0      0.0      0.0    125.0       22     39.3     39.3       92     0.000     0.000     0.000     0.000       81        0        0        0        0       63        5     2.126       16     27.5    0.585     0.36        8        6     2053  1311_RCP85_rainfed_15March_sandy.PRM
  Tot(38)       15        3     2054     74.1    567.9   1559.1   564.00      0.0     74.1      0.0      0.0      0.0     84.5       15     34.6     34.6       83     0.000     0.000     0.000     0.000       74        0        0        0        0       60       16     1.830       14     21.5    0.394     0.37        5        6     2054  1311_RCP85_rainfed_15March_sandy.PRM
  Tot(39)       15        3     2055    120.4    508.0   1557.9   571.00      0.0    120.4      0.0      0.0      0.0    103.2       22     41.3     41.3       81     0.000     0.000     0.000     0.000       80        0        0        0        0       56       10     2.563       19     30.7    0.788     0.55        8        6     2055  1311_RCP85_rainfed_15March_sandy.PRM
  Tot(40)       15        3     2056    419.9    481.2   1563.3   577.00      0.0    419.9      0.0    148.1      0.0    104.0       35    118.9    118.9       81     0.000     0.000     0.000     0.000       83        0        0        0        0       30        8     8.024       58     30.0    2.407     1.09       11        6     2056  1311_RCP85_rainfed_15March_sandy.PRM
  Tot(41)       15        3     2057     90.6    567.5   1560.8   583.00      0.0     90.6      0.0      0.0      0.0     63.2       11     35.8     35.8       84     0.000     0.000     0.000     0.000       69        0        0        0        0       63       16     1.927       15     19.4    0.374     0.43        5        6     2057  1311_RCP85_rainfed_15March_sandy.PRM
  Tot(42)       15        3     2058    163.8    509.4   1557.5   590.00      0.0    163.8      0.0     16.4      0.0    108.2       24     44.3     44.3       77     0.000     0.000     0.000     0.000       58        0        0        0        0       53       21     2.566       19      7.1    0.181     0.18        8        6     2058  1311_RCP85_rainfed_15March_sandy.PRM
  Tot(43)       15        3     2059    119.1    596.7   1574.8   597.00      0.0    119.1      0.0      1.2      0.0     87.5       16     56.3     56.3       90     0.000     0.000     0.000     0.000       80        0        0        0        0       55        7     2.990       22     30.1    0.901     0.63        8        6     2059  1311_RCP85_rainfed_15March_sandy.PRM
  Tot(44)       15        3     2060    111.0    598.5   1562.1   604.00      0.0    111.0      0.0      0.0      0.0     75.8       17    101.6    101.6       77     0.000     0.000     0.000     0.000       80        0        0        0        0       41       22     5.840       43     28.0    1.636     0.92        7        6     2060  1311_RCP85_rainfed_15March_sandy.PRM
  Tot(45)       15        3     2061     81.7    510.7   1560.9   611.00      0.0     81.7      0.0      0.0      0.0     89.4       19     42.9     42.9       84     0.000     0.000     0.000     0.000       78        0        0        0        0       53       13     2.448       19     30.8    0.753     0.57        5        6     2061  1311_RCP85_rainfed_15March_sandy.PRM
  Tot(46)       15        3     2062    190.7    519.5   1559.6   618.00      0.0    190.7      0.0     34.2      0.0     82.0       23    128.6    128.6       89     0.000     0.000     0.000     0.000       81        0        0        0        0       21        8     9.529       67     29.4    2.806     1.35        9        6     2062  1311_RCP85_rainfed_15March_sandy.PRM
  Tot(47)       15        3     2063    251.3    491.0   1573.1   625.00      0.0    251.3      0.0     65.3      0.0    126.3       30     51.0     51.0       77     0.000     0.000     0.000     0.000       83        0        0        0        0       49        9     3.091       22     30.7    0.948     0.55       10        6     2063  1311_RCP85_rainfed_15March_sandy.PRM
  Tot(48)       15        3     2064    104.9    523.4   1571.5   632.00      0.0    104.9      0.0      0.0      0.0    106.8       27     56.5     56.5       63     0.000     0.000     0.000     0.000       80        0        0        0        0       44       33     3.641       27     28.5    1.038     0.64        7        6     2064  1311_RCP85_rainfed_15March_sandy.PRM
  Tot(49)       15        3     2065    634.1    504.0   1566.8   639.00      0.0    634.1      0.0    385.0      0.0     99.2       26    117.7    117.7       91     0.000     0.000     0.000     0.000       82        0        0        0        0       34        5     7.423       54     29.9    2.218     1.03       10        6     2065  1311_RCP85_rainfed_15March_sandy.PRM
  Tot(50)       15        3     2066     72.8    606.5   1570.5   647.00      0.0     72.8      0.0      0.0      0.0     82.2       14     50.6     50.6       80     0.000     0.000     0.000     0.000       77        0        0        0        0       57       22     2.717       21     30.4    0.827     0.63        5        6     2066  1311_RCP85_rainfed_15March_sandy.PRM
  Tot(51)       15        3     2067     74.0    525.3   1559.4   654.00      0.0     74.0      0.0      0.0      0.0     81.8       16     33.9     33.9       82     0.000     0.000     0.000     0.000       79        0        0        0        0       57       13     1.906       14     15.5    0.295     0.26        6        6     2067  1311_RCP85_rainfed_15March_sandy.PRM
  Tot(52)       15        3     2068    108.0    552.8   1573.5   662.00      0.0    108.0      0.0      0.0      0.0    110.4       21     37.6     37.6       82     0.000     0.000     0.000     0.000       78        0        0        0        0       60       12     2.050       15     29.9    0.612     0.42        5        6     2068  1311_RCP85_rainfed_15March_sandy.PRM
  Tot(53)       15        3     2069    252.9    493.7   1558.8   669.00      0.0    252.9      0.0     17.5      0.0    132.9       37     91.5     91.5       77     0.000     0.000     0.000     0.000       82        0        0        0        0       39       11     6.532       47     30.3    1.976     0.89       10        6     2069  1311_RCP85_rainfed_15March_sandy.PRM
  Tot(54)       15        3     2070    208.0    515.7   1570.5   677.00      0.0    208.0      0.0     49.6      0.0    100.3       21     56.1     56.1       83     0.000     0.000     0.000     0.000       80        0        0        0        0       52        9     3.410       26     30.4    1.038     0.67        7        6     2070  1311_RCP85_rainfed_15March_sandy.PRM
  Tot(55)       15        3     2071    378.2    432.7   1567.1   685.00      0.0    378.2      0.0     97.1      0.0    118.3       43    126.8    126.8       97     0.000     0.000     0.000     0.000       83        0        0        0        0       22        2    11.252       78     30.0    3.375     1.38       10        6     2071  1311_RCP85_rainfed_15March_sandy.PRM
  Tot(56)       15        3     2072    223.1    519.8   1569.2   693.00      0.0    223.1      0.0     57.3      0.0     98.0       21     69.0     69.0       99     0.000     0.000     0.000     0.000       80        0        0        0        0       42        1     5.188       38     30.0    1.556     0.94        7        6     2072  1311_RCP85_rainfed_15March_sandy.PRM
  Tot(57)       15        3     2073     48.7    585.8   1568.2   701.00      0.0     48.7      0.0      0.0      0.0     62.5       11     32.3     32.3       83     0.000     0.000     0.000     0.000       75        0        0        0        0       61       13     1.635       13     10.3    0.168     0.18        2        6     2073  1311_RCP85_rainfed_15March_sandy.PRM
  Tot(58)       15        3     2074    109.1    541.7   1570.8   709.00      0.0    109.1      0.0      0.0      0.0    110.4       21     36.6     36.6       90     0.000     0.000     0.000     0.000       77        0        0        0        0       61        7     2.091       16     28.8    0.602     0.41        5        6     2074  1311_RCP85_rainfed_15March_sandy.PRM
  Tot(59)       15        3     2075     82.5    597.0   1568.1   717.00      0.0     82.5      0.0      0.0      0.0     92.8       16     35.6     35.6       85     0.000     0.000     0.000     0.000       77        0        0        0        0       63        8     1.834       14     27.7    0.507     0.40        4        6     2075  1311_RCP85_rainfed_15March_sandy.PRM
  Tot(60)       15        3     2076    436.4    438.8   1563.3   725.00      0.0    436.4      0.0    204.4      0.0    103.6       31    100.5    100.5       97     0.000     0.000     0.000     0.000       82        0        0        0        0       32        2     9.029       64     30.0    2.709     1.33        9        6     2076  1311_RCP85_rainfed_15March_sandy.PRM
  Tot(61)       15        3     2077    287.5    501.4   1558.2   733.00      0.0    287.5      0.0     92.7      0.0     89.5       24    116.1    116.1       98     0.000     0.000     0.000     0.000       79        0        0        0        0       33        1     9.114       66     30.1    2.746     1.34        7        6     2077  1311_RCP85_rainfed_15March_sandy.PRM
  Tot(62)       15        3     2078    105.2    548.6   1575.5   742.00      0.0    105.2      0.0      0.0      0.0     92.3       18     42.4     42.4       78     0.000     0.000     0.000     0.000       76        0        0        0        0       56       15     2.373       19     29.3    0.696     0.54        4        6     2078  1311_RCP85_rainfed_15March_sandy.PRM
  Tot(63)       15        3     2079    290.2    555.1   1560.4   750.00      0.0    290.2      0.0     47.7      0.0    100.1       22     57.5     57.5       68     0.000     0.000     0.000     0.000       62        0        0        0        0       47       26     3.354       26     14.5    0.486     0.39        5        6     2079  1311_RCP85_rainfed_15March_sandy.PRM
  Tot(64)       15        3     2080    489.8    500.5   1570.0   758.00      0.0    489.8      0.0    319.7      0.0    119.4       30     57.6     57.6       70     0.000     0.000     0.000     0.000       78        0        0        0        0       48       16     3.048       23     30.5    0.930     0.54        5        6     2080  1311_RCP85_rainfed_15March_sandy.PRM
  Tot(65)       15        3     2081    280.2    558.5   1558.4   767.00      0.0    280.2      0.0     74.2      0.0    117.9       23     61.4     61.4       91     0.000     0.000     0.000     0.000       78        0        0        0        0       52        5     3.638       27     30.5    1.111     0.62        5        6     2081  1311_RCP85_rainfed_15March_sandy.PRM
  Tot(66)       15        3     2082    534.6    395.0   1570.1   775.00      0.0    534.6      0.0    275.4      0.0    113.7       49    150.4    150.4      100     0.000     0.000     0.000     0.000       84        0        0        0        0        7        0    13.650       95     30.3    4.133     1.58       11        6     2082  1311_RCP85_rainfed_15March_sandy.PRM
  Tot(67)       15        3     2083    232.8    579.4   1569.2   784.00      0.0    232.8      0.0     89.1      0.0    107.3       21     73.3     73.3      100     0.000     0.000     0.000     0.000       78        0        0        0        0       44        0     4.508       34     30.1    1.356     0.76        5        6     2083  1311_RCP85_rainfed_15March_sandy.PRM
  Tot(68)       15        3     2084    184.3    544.9   1570.5   792.00      0.0    184.3      0.0      0.0      0.0    120.3       31    117.0    117.0       90     0.000     0.000     0.000     0.000       78        0        0        0        0       31        6     7.909       59     30.0    2.374     1.01        5        6     2084  1311_RCP85_rainfed_15March_sandy.PRM
  Tot(69)       15        3     2085    201.0    494.2   1571.9   801.00      0.0    201.0      0.0     51.0      0.0     98.1       22     41.1     41.1       78     0.000     0.000     0.000     0.000       59        0        0        0        0       50       19     2.946       23     10.1    0.297     0.30        5        6     2085  1311_RCP85_rainfed_15March_sandy.PRM
  Tot(70)       15        3     2086    123.9    503.7   1575.1   810.00      0.0    123.9      0.0      0.0      0.0     82.1       20     70.9     70.9       86     0.000     0.000     0.000     0.000       77        0        0        0        0       45        6     5.104       39     30.6    1.563     1.03        4        6     2086  1311_RCP85_rainfed_15March_sandy.PRM
  Tot(71)       15        3     2087    200.7    553.3   1562.8   818.00      0.0    200.7      0.0     51.9      0.0    112.5       21     49.3     49.3       98     0.000     0.000     0.000     0.000       76        0        0        0        0       55        1     3.200       24     30.6    0.980     0.61        3        6     2087  1311_RCP85_rainfed_15March_sandy.PRM
  Tot(72)       15        3     2088    243.3    532.3   1571.3   827.00      0.0    243.3      0.0     48.5      0.0     98.8       24     88.3     88.3       90     0.000     0.000     0.000     0.000       78        0        0        0        0       39        4     6.368       47     30.4    1.938     1.06        5        6     2088  1311_RCP85_rainfed_15March_sandy.PRM
  Tot(73)       15        3     2089     86.3    578.7   1566.3   836.00      0.0     86.3      0.0      0.0      0.0     74.5       13     34.5     34.5       81     0.000     0.000     0.000     0.000       75        0        0        0        0       59       13     1.841       14      3.5    0.064     0.06        2        6     2089  1311_RCP85_rainfed_15March_sandy.PRM
  Tot(74)       15        3     2090     46.7    562.0   1575.6   845.00      0.0     46.7      0.0      0.0      0.0     59.8       12     43.9     43.9       75     0.000     0.000     0.000     0.000       58        0        0        0        0       52       21     2.677       21     12.0    0.322     0.34        2        6     2090  1311_RCP85_rainfed_15March_sandy.PRM
  Tot(75)       15        3     2091    171.8    523.0   1559.3   854.00      0.0    171.8      0.0     60.2      0.0     73.1       22    107.2    107.2       77     0.000     0.000     0.000     0.000       76        0        0        0        0       22       21     7.597       56     26.7    2.025     1.13        4        6     2091  1311_RCP85_rainfed_15March_sandy.PRM
  Tot(76)       15        3     2092    292.2    478.5   1565.3   863.00      0.0    292.2      0.0     37.6      0.0     99.9       34    145.6    145.6       99     0.000     0.000     0.000     0.000       78        0        0        0        0       21        0    10.557       78     30.1    3.173     1.30        5        6     2092  1311_RCP85_rainfed_15March_sandy.PRM
  Tot(77)       15        3     2093    169.7    494.1   1567.9   872.00      0.0    169.7      0.0     11.0      0.0    117.6       28     44.7     44.7       77     0.000     0.000     0.000     0.000       76        0        0        0        0       50       17     2.827       22     30.7    0.867     0.54        3        6     2093  1311_RCP85_rainfed_15March_sandy.PRM
  Tot(78)       15        3     2094    326.1    465.4   1572.1   881.00      0.0    326.1      0.0    118.6      0.0    138.5       42     76.6     76.6       68     0.000     0.000     0.000     0.000       79        0        0        0        0       44       15     5.728       42     24.6    1.408     0.67        6        6     2094  1311_RCP85_rainfed_15March_sandy.PRM
  Tot(79)       15        3     2095    210.3    467.5   1570.5   890.00      0.0    210.3      0.0      5.8      0.0    106.7       31     93.1     93.1       96     0.000     0.000     0.000     0.000       77        0        0        0        0       35        3     8.071       60     30.1    2.430     1.23        5        6     2095  1311_RCP85_rainfed_15March_sandy.PRM
  Tot(80)       15        3     2096    248.7    546.4   1567.3   899.00      0.0    248.7      0.0     50.5      0.0    115.4       34     93.8     93.8       73     0.000     0.000     0.000     0.000       77        0        0        0        0       34       14     6.236       47     19.8    1.233     0.60        4        6     2096  1311_RCP85_rainfed_15March_sandy.PRM
  Tot(81)       15        3     2097    132.4    540.3   1573.2   908.00      0.0    132.4      0.0      0.0      0.0     98.2       20     53.3     53.3       81     0.000     0.000     0.000     0.000       75        0        0        0        0       54       11     3.297       26     30.4    1.004     0.68        2        6     2097  1311_RCP85_rainfed_15March_sandy.PRM
  Tot(82)       15        3     2098    197.8    505.0   1573.0   917.00      0.0    197.8      0.0      9.9      0.0    118.2       26     61.7     61.7       91     0.000     0.000     0.000     0.000       77        0        0        0        0       49        4     4.492       34     30.5    1.372     0.77        4        6     2098  1311_RCP85_rainfed_15March_sandy.PRM
  Tot(83)       15        3     2099    439.5    497.2   1574.3   927.00      0.0    439.5      0.0    181.5      0.0     90.0       27    109.2    109.2       81     0.000     0.000     0.000     0.000       77        0        0        0        0       38        8     7.149       55     30.2    2.158     1.09        4        6     2099  1311_RCP85_rainfed_15March_sandy.PRM
