AquaCrop 6.0 (March 2017) - Output created on (date) : 07/06/2021   at (time) : 20:39:07

    RunNr     Day1   Month1    Year1     Rain      ETo       GD     CO2      Irri   Infilt   Runoff    Drain   Upflow        E     E/Ex       Tr      TrW   Tr/Trx    SaltIn   SaltOut    SaltUp  SaltProf     Cycle   SaltStr  FertStr  WeedStr  TempStr   ExpStr   StoStr  BioMass  Brelative   HI     Yield     WPet     DayN   MonthN    YearN
                                           mm       mm    °C.day    ppm        mm       mm       mm       mm       mm       mm        %       mm       mm        %    ton/ha    ton/ha    ton/ha    ton/ha      days       %        %        %        %        %        %    ton/ha        %       %    ton/ha    kg/m3
   Tot(1)       15        3     2017    341.6    510.7   1568.7   407.00      0.0    341.6      0.0     86.9      0.0    101.7       30    162.0    162.0       97     0.000     0.000     0.000     0.000       85        0        0        0        0       37        1     9.877       71     30.6    3.025     1.16       13        6     2017  1311_RCP85_rainfed_15March_sandyloam.PRM
   Tot(2)       15        3     2018    128.4    548.1   1560.9   410.00      0.0    128.4      0.0     16.1      0.0    103.2       22     69.8     69.8       80     0.000     0.000     0.000     0.000       71        0        0        0        0       51       18     3.705       27     16.3    0.603     0.42       13        6     2018  1311_RCP85_rainfed_15March_sandyloam.PRM
   Tot(3)       15        3     2019    108.5    553.0   1561.9   413.00      0.0    108.5      0.0      0.0      0.0    120.1       27     74.6     74.6       78     0.000     0.000     0.000     0.000       66        0        0        0        0       46       19     3.930       30     12.2    0.478     0.31       11        6     2019  1311_RCP85_rainfed_15March_sandyloam.PRM
   Tot(4)       15        3     2020     97.1    565.5   1565.9   416.00      0.0     97.1      0.0      0.0      0.0    107.0       24     82.4     82.4       77     0.000     0.000     0.000     0.000       69        0        0        0        1       42       20     4.577       35     15.9    0.730     0.46       13        6     2020  1311_RCP85_rainfed_15March_sandyloam.PRM
   Tot(5)       15        3     2021    115.5    571.4   1572.9   419.00      0.0    115.5      0.0      0.0      0.0     93.1       21     84.7     84.7       75     0.000     0.000     0.000     0.000       69        0        0        0        0       45       20     4.386       32     18.1    0.792     0.49       13        6     2021  1311_RCP85_rainfed_15March_sandyloam.PRM
   Tot(6)       15        3     2022     23.8    627.0   1569.2   422.00      0.0     23.8      0.0      0.0      0.0     51.1        9     66.5     66.5       81     0.000     0.000     0.000     0.000       67        0        0        0        0       52       18     3.282       25     15.3    0.502     0.44       10        6     2022  1311_RCP85_rainfed_15March_sandyloam.PRM
   Tot(7)       15        3     2023    181.7    535.6   1569.7   425.00      0.0    181.7      0.0      0.0      0.0    135.2       31     71.3     71.3       77     0.000     0.000     0.000     0.000       70        0        0        0        0       49       19     3.776       27     16.3    0.615     0.38       13        6     2023  1311_RCP85_rainfed_15March_sandyloam.PRM
   Tot(8)       15        3     2024    241.6    552.9   1569.6   428.00      0.0    241.6      0.0     43.9      0.0    104.5       22     76.4     76.4       85     0.000     0.000     0.000     0.000       86        0        0        0        1       51        9     3.787       28     30.8    1.167     0.65       14        6     2024  1311_RCP85_rainfed_15March_sandyloam.PRM
   Tot(9)       15        3     2025     96.1    574.8   1570.0   431.00      0.0     96.1      0.0      0.0      0.0    110.6       24     86.4     86.4       81     0.000     0.000     0.000     0.000       73        0        0        0        0       47       19     4.704       35     23.2    1.091     0.63       11        6     2025  1311_RCP85_rainfed_15March_sandyloam.PRM
  Tot(10)       15        3     2026    136.6    550.3   1578.2   435.00      0.0    136.6      0.0     16.4      0.0     90.1       28    143.1    143.1       74     0.000     0.000     0.000     0.000       84        0        0        0        1       26       23     9.110       66     28.4    2.586     1.11       14        6     2026  1311_RCP85_rainfed_15March_sandyloam.PRM
  Tot(11)       15        3     2027    105.2    615.6   1572.5   438.00      0.0    105.2      0.0      6.2      0.0     86.1       17     90.4     90.4       78     0.000     0.000     0.000     0.000       72        0        0        0        0       46       19     4.317       32     19.9    0.861     0.56       13        6     2027  1311_RCP85_rainfed_15March_sandyloam.PRM
  Tot(12)       15        3     2028     91.4    574.1   1562.5   442.00      0.0     91.4      0.0      0.0      0.0     83.3       18     85.5     85.5       78     0.000     0.000     0.000     0.000       72        0        0        0        0       47       19     4.852       36     21.0    1.017     0.72       10        6     2028  1311_RCP85_rainfed_15March_sandyloam.PRM
  Tot(13)       15        3     2029    131.4    517.1   1572.7   445.00      0.0    131.4      0.0      0.0      0.0     83.8       24    114.0    114.0       72     0.000     0.000     0.000     0.000       82        0        0        0        0       40       22     6.994       52     29.5    2.061     1.05       10        6     2029  1311_RCP85_rainfed_15March_sandyloam.PRM
  Tot(14)       15        3     2030    181.1    562.0   1572.3   449.00      0.0    181.1      0.0     38.7      0.0    117.9       33    125.1    125.1       77     0.000     0.000     0.000     0.000       83        0        0        0        0       35       16     7.080       52     30.0    2.125     0.88       11        6     2030  1311_RCP85_rainfed_15March_sandyloam.PRM
  Tot(15)       15        3     2031     73.1    594.0   1562.9   452.00      0.0     73.1      0.0      0.0      0.0     77.8       16     97.3     97.3       78     0.000     0.000     0.000     0.000       81        0        0        0        0       47       19     5.091       37     30.1    1.534     0.88        9        6     2031  1311_RCP85_rainfed_15March_sandyloam.PRM
  Tot(16)       15        3     2032     97.1    601.2   1574.8   456.00      0.0     97.1      0.0      0.0      0.0    106.1       22     87.9     87.9       76     0.000     0.000     0.000     0.000       82        0        0        0        0       46       20     4.285       33     29.8    1.276     0.67        9        6     2032  1311_RCP85_rainfed_15March_sandyloam.PRM
  Tot(17)       15        3     2033     77.9    603.1   1575.8   460.00      0.0     77.9      0.0      0.0      0.0     84.5       15     65.6     65.6       88     0.000     0.000     0.000     0.000       74        0        0        0        0       54       14     3.151       24     23.6    0.744     0.59       11        6     2033  1311_RCP85_rainfed_15March_sandyloam.PRM
  Tot(18)       15        3     2034    134.1    537.8   1562.7   464.00      0.0    134.1      0.0      0.0      0.0    123.2       31     82.5     82.5       76     0.000     0.000     0.000     0.000       84        0        0        0        0       46       10     4.694       33     30.4    1.427     0.70       12        6     2034  1311_RCP85_rainfed_15March_sandyloam.PRM
  Tot(19)       15        3     2035    233.0    506.2   1572.2   468.00      0.0    233.0      0.0      5.7      0.0     99.5       35    148.3    148.3       80     0.000     0.000     0.000     0.000       85        0        0        0        0       23       13     9.022       65     30.0    2.704     1.11       13        6     2035  1311_RCP85_rainfed_15March_sandyloam.PRM
  Tot(20)       15        3     2036    256.4    490.5   1571.4   472.00      0.0    256.4      0.0     17.7      0.0    127.8       34    110.6    110.6       91     0.000     0.000     0.000     0.000       87        0        0        0        1       40        5     7.471       54     30.0    2.243     0.95       15        6     2036  1311_RCP85_rainfed_15March_sandyloam.PRM
  Tot(21)       15        3     2037    275.4    513.6   1573.0   476.00      0.0    275.4      0.0     60.6      0.0    109.2       32     99.2     99.2       74     0.000     0.000     0.000     0.000       86        0        0        0        0       38       16     5.310       38     30.4    1.616     0.79       14        6     2037  1311_RCP85_rainfed_15March_sandyloam.PRM
  Tot(22)       15        3     2038    165.0    519.6   1557.4   481.00      0.0    165.0      0.0      0.0      0.0     99.7       26    118.6    118.6       83     0.000     0.000     0.000     0.000       86        0        0        0        0       39       10     7.158       52     30.0    2.151     0.99       13        6     2038  1311_RCP85_rainfed_15March_sandyloam.PRM
  Tot(23)       15        3     2039    175.6    583.1   1568.4   485.00      0.0    175.6      0.0      0.0      0.0     93.3       21    117.4    117.4       83     0.000     0.000     0.000     0.000       82        0        0        0        0       39       11     6.437       48     30.3    1.950     0.94       10        6     2039  1311_RCP85_rainfed_15March_sandyloam.PRM
  Tot(24)       15        3     2040    183.8    588.8   1561.0   489.00      0.0    183.8      0.0     16.2      0.0    100.7       21     70.0     70.0       74     0.000     0.000     0.000     0.000       63        0        0        0        0       48       19     3.580       27     12.0    0.428     0.38       10        6     2040  1311_RCP85_rainfed_15March_sandyloam.PRM
  Tot(25)       15        3     2041     62.4    581.1   1571.2   494.00      0.0     62.4      0.0      0.0      0.0     73.0       15     78.9     78.9       86     0.000     0.000     0.000     0.000       81        0        0        0        0       51       12     4.210       31     30.9    1.299     0.86        9        6     2041  1311_RCP85_rainfed_15March_sandyloam.PRM
  Tot(26)       15        3     2042    162.0    499.3   1561.9   499.00      0.0    162.0      0.0     22.9      0.0    112.8       41    134.4    134.4       73     0.000     0.000     0.000     0.000       82        0        0        0        0       28       19     8.240       60     29.6    2.437     0.99        9        6     2042  1311_RCP85_rainfed_15March_sandyloam.PRM
  Tot(27)       15        3     2043    220.1    557.6   1564.2   504.00      0.0    220.1      0.0      0.0      0.0     97.7       26    131.6    131.6       84     0.000     0.000     0.000     0.000       82        0        0        0        0       40        8     7.376       54     31.0    2.283     1.00        9        6     2043  1311_RCP85_rainfed_15March_sandyloam.PRM
  Tot(28)       15        3     2044    113.9    531.9   1573.2   508.00      0.0    113.9      0.0      0.0      0.0    102.5       23     74.0     74.0       83     0.000     0.000     0.000     0.000       68        0        0        0        0       51       17     3.958       30     20.4    0.806     0.56        7        6     2044  1311_RCP85_rainfed_15March_sandyloam.PRM
  Tot(29)       15        3     2045    156.4    551.3   1560.7   513.00      0.0    156.4      0.0      0.0      0.0     88.5       20     75.8     75.8       80     0.000     0.000     0.000     0.000       65        0        0        0        0       48       18     4.016       31     17.1    0.687     0.53        8        6     2045  1311_RCP85_rainfed_15March_sandyloam.PRM
  Tot(30)       15        3     2046      9.6    622.2   1564.7   519.00      0.0      9.6      0.0      0.0      0.0     37.4        7     65.4     65.4       85     0.000     0.000     0.000     0.000       66        0        0        0        0       53       16     3.170       25     19.4    0.614     0.61        5        6     2046  1311_RCP85_rainfed_15March_sandyloam.PRM
  Tot(31)       15        3     2047    117.8    560.6   1567.9   524.00      0.0    117.8      0.0      2.5      0.0    111.7       30    103.2    103.2       76     0.000     0.000     0.000     0.000       68        0        0        0        0       35       21     5.905       45     18.9    1.114     0.59        9        6     2047  1311_RCP85_rainfed_15March_sandyloam.PRM
  Tot(32)       15        3     2048    218.6    514.0   1569.5   529.00      0.0    218.6      0.0      0.0      0.0    116.1       37    132.1    132.1       76     0.000     0.000     0.000     0.000       83        0        0        0        0       35       16     7.538       55     30.3    2.285     0.92       11        6     2048  1311_RCP85_rainfed_15March_sandyloam.PRM
  Tot(33)       15        3     2049    199.3    531.0   1562.1   535.00      0.0    199.3      0.0      0.0      0.0    102.5       27    130.4    130.4       91     0.000     0.000     0.000     0.000       82        0        0        0        0       39        5     8.027       58     30.1    2.418     1.06       10        6     2049  1311_RCP85_rainfed_15March_sandyloam.PRM
  Tot(34)       15        3     2050    361.5    486.8   1558.3   541.00      0.0    361.5      0.0     97.8      0.0    118.3       43    156.8    156.8       85     0.000     0.000     0.000     0.000       86        0        0        0        1       19        8    10.956       77     30.4    3.334     1.22       14        6     2050  1311_RCP85_rainfed_15March_sandyloam.PRM
  Tot(35)       15        3     2051    106.3    555.7   1568.1   546.00      0.0    106.3      0.0      0.0      0.0     73.7       22    145.1    145.1       82     0.000     0.000     0.000     0.000       80        0        0        0        0       20       19     9.220       68     28.7    2.645     1.21        7        6     2051  1311_RCP85_rainfed_15March_sandyloam.PRM
  Tot(36)       15        3     2052    118.0    567.2   1565.6   552.00      0.0    118.0      0.0      0.0      0.0     96.4       22    107.9    107.9       89     0.000     0.000     0.000     0.000       80        0        0        0        0       46        8     6.458       48     30.9    1.996     0.98        7        6     2052  1311_RCP85_rainfed_15March_sandyloam.PRM
  Tot(37)       15        3     2053    129.2    563.7   1574.5   558.00      0.0    129.2      0.0      0.0      0.0    123.1       26     81.2     81.2       88     0.000     0.000     0.000     0.000       81        0        0        0        0       52        8     4.430       33     30.8    1.363     0.67        8        6     2053  1311_RCP85_rainfed_15March_sandyloam.PRM
  Tot(38)       15        3     2054     74.1    567.9   1559.1   564.00      0.0     74.1      0.0      0.0      0.0     95.3       20     68.6     68.6       81     0.000     0.000     0.000     0.000       67        0        0        0        0       50       18     3.560       27     19.3    0.689     0.49        5        6     2054  1311_RCP85_rainfed_15March_sandyloam.PRM
  Tot(39)       15        3     2055    120.4    508.0   1557.9   571.00      0.0    120.4      0.0      0.0      0.0    103.3       27     84.1     84.1       81     0.000     0.000     0.000     0.000       80        0        0        0        0       46        9     5.248       39     30.7    1.611     0.87        8        6     2055  1311_RCP85_rainfed_15March_sandyloam.PRM
  Tot(40)       15        3     2056    419.9    481.2   1563.3   577.00      0.0    419.9      0.0     90.8      0.0    104.0       39    177.3    177.3       94     0.000     0.000     0.000     0.000       83        0        0        0        0       22        3    11.714       84     30.2    3.541     1.27       11        6     2056  1311_RCP85_rainfed_15March_sandyloam.PRM
  Tot(41)       15        3     2057     90.6    567.5   1560.8   583.00      0.0     90.6      0.0      0.0      0.0     71.5       15     68.2     68.2       85     0.000     0.000     0.000     0.000       67        0        0        0        0       53       16     3.639       28     21.4    0.778     0.61        5        6     2057  1311_RCP85_rainfed_15March_sandyloam.PRM
  Tot(42)       15        3     2058    163.8    509.4   1557.5   590.00      0.0    163.8      0.0      8.8      0.0    117.7       31     83.6     83.6       77     0.000     0.000     0.000     0.000       80        0        0        0        0       44       17     4.779       36     30.4    1.453     0.74        8        6     2058  1311_RCP85_rainfed_15March_sandyloam.PRM
  Tot(43)       15        3     2059    119.1    596.7   1574.8   597.00      0.0    119.1      0.0      0.0      0.0     95.2       20    110.1    110.1       90     0.000     0.000     0.000     0.000       80        0        0        0        0       46        9     5.783       43     30.2    1.748     0.86        8        6     2059  1311_RCP85_rainfed_15March_sandyloam.PRM
  Tot(44)       15        3     2060    111.0    598.5   1562.1   604.00      0.0    111.0      0.0      0.0      0.0     80.2       20    139.4    139.4       82     0.000     0.000     0.000     0.000       80        0        0        0        0       35       19     7.921       58     29.3    2.317     1.06        7        6     2060  1311_RCP85_rainfed_15March_sandyloam.PRM
  Tot(45)       15        3     2061     81.7    510.7   1560.9   611.00      0.0     81.7      0.0      0.0      0.0     91.3       24     86.7     86.7       81     0.000     0.000     0.000     0.000       78        0        0        0        0       48       18     4.950       37     30.6    1.517     0.85        5        6     2061  1311_RCP85_rainfed_15March_sandyloam.PRM
  Tot(46)       15        3     2062    190.7    519.5   1559.6   618.00      0.0    190.7      0.0     19.6      0.0     80.1       25    164.9    164.9      100     0.000     0.000     0.000     0.000       81        0        0        0        0       13        1    12.060       85     30.0    3.620     1.50        9        6     2062  1311_RCP85_rainfed_15March_sandyloam.PRM
  Tot(47)       15        3     2063    251.3    491.0   1573.1   625.00      0.0    251.3      0.0     36.7      0.0    110.3       31     95.7     95.7       82     0.000     0.000     0.000     0.000       83        0        0        0        0       42        7     6.102       44     30.7    1.876     0.93       10        6     2063  1311_RCP85_rainfed_15March_sandyloam.PRM
  Tot(48)       15        3     2064    104.9    523.4   1571.5   632.00      0.0    104.9      0.0      0.0      0.0    106.8       34     99.7     99.7       73     0.000     0.000     0.000     0.000       80        0        0        0        0       39       25     6.095       45     30.1    1.834     0.89        7        6     2064  1311_RCP85_rainfed_15March_sandyloam.PRM
  Tot(49)       15        3     2065    634.1    504.0   1566.8   639.00      0.0    634.1      0.0    343.3      0.0     92.7       28    166.8    166.8       99     0.000     0.000     0.000     0.000       82        0        0        0        0       26        0    10.345       75     30.0    3.108     1.20       10        6     2065  1311_RCP85_rainfed_15March_sandyloam.PRM
  Tot(50)       15        3     2066     72.8    606.5   1570.5   647.00      0.0     72.8      0.0      0.0      0.0     89.8       18     85.4     85.4       81     0.000     0.000     0.000     0.000       75        0        0        0        0       52       20     4.444       34     30.5    1.353     0.79        5        6     2066  1311_RCP85_rainfed_15March_sandyloam.PRM
  Tot(51)       15        3     2067     74.0    525.3   1559.4   654.00      0.0     74.0      0.0      0.0      0.0     87.0       20     70.0     70.0       82     0.000     0.000     0.000     0.000       73        0        0        0        0       49       16     3.840       29     24.7    0.947     0.65        6        6     2067  1311_RCP85_rainfed_15March_sandyloam.PRM
  Tot(52)       15        3     2068    108.0    552.8   1573.5   662.00      0.0    108.0      0.0      0.0      0.0    118.3       26     70.9     70.9       84     0.000     0.000     0.000     0.000       78        0        0        0        0       51       12     3.814       29     30.9    1.177     0.62        5        6     2068  1311_RCP85_rainfed_15March_sandyloam.PRM
  Tot(53)       15        3     2069    252.9    493.7   1558.8   669.00      0.0    252.9      0.0     12.8      0.0    123.8       40    136.0    136.0       85     0.000     0.000     0.000     0.000       82        0        0        0        0       30        7     9.463       68     30.5    2.882     1.12       10        6     2069  1311_RCP85_rainfed_15March_sandyloam.PRM
  Tot(54)       15        3     2070    208.0    515.7   1570.5   677.00      0.0    208.0      0.0      9.3      0.0     97.7       25     99.4     99.4       80     0.000     0.000     0.000     0.000       80        0        0        0        0       44       10     5.981       45     30.5    1.824     0.93        7        6     2070  1311_RCP85_rainfed_15March_sandyloam.PRM
  Tot(55)       15        3     2071    378.2    432.7   1567.1   685.00      0.0    378.2      0.0     69.2      0.0    121.7       49    152.0    152.0       99     0.000     0.000     0.000     0.000       83        0        0        0        0       14        0    13.011       90     30.0    3.904     1.43       10        6     2071  1311_RCP85_rainfed_15March_sandyloam.PRM
  Tot(56)       15        3     2072    223.1    519.8   1569.2   693.00      0.0    223.1      0.0     25.8      0.0     85.7       21    114.7    114.7       99     0.000     0.000     0.000     0.000       80        0        0        0        0       32        1     8.437       62     30.0    2.531     1.28        7        6     2072  1311_RCP85_rainfed_15March_sandyloam.PRM
  Tot(57)       15        3     2073     48.7    585.8   1568.2   701.00      0.0     48.7      0.0      0.0      0.0     69.0       14     64.5     64.5       83     0.000     0.000     0.000     0.000       75        0        0        0        0       52       15     3.171       25     25.3    0.804     0.60        2        6     2073  1311_RCP85_rainfed_15March_sandyloam.PRM
  Tot(58)       15        3     2074    109.1    541.7   1570.8   709.00      0.0    109.1      0.0      0.0      0.0    118.8       27     72.7     72.7       83     0.000     0.000     0.000     0.000       77        0        0        0        0       51       12     4.094       31     30.7    1.258     0.66        5        6     2074  1311_RCP85_rainfed_15March_sandyloam.PRM
  Tot(59)       15        3     2075     82.5    597.0   1568.1   717.00      0.0     82.5      0.0      0.0      0.0     93.3       18     73.4     73.4       85     0.000     0.000     0.000     0.000       77        0        0        0        0       53       10     3.776       29     30.8    1.163     0.70        4        6     2075  1311_RCP85_rainfed_15March_sandyloam.PRM
  Tot(60)       15        3     2076    436.4    438.8   1563.3   725.00      0.0    436.4      0.0    181.3      0.0     98.8       33    129.8    129.8       99     0.000     0.000     0.000     0.000       82        0        0        0        0       24        0    11.085       78     30.0    3.325     1.46        9        6     2076  1311_RCP85_rainfed_15March_sandyloam.PRM
  Tot(61)       15        3     2077    287.5    501.4   1558.2   733.00      0.0    287.5      0.0     62.4      0.0     88.9       28    151.4    151.4      100     0.000     0.000     0.000     0.000       79        0        0        0        0       19        0    11.630       84     30.1    3.504     1.46        7        6     2077  1311_RCP85_rainfed_15March_sandyloam.PRM
  Tot(62)       15        3     2078    105.2    548.6   1575.5   742.00      0.0    105.2      0.0      0.0      0.0     97.3       22     72.3     72.3       80     0.000     0.000     0.000     0.000       76        0        0        0        0       48       14     3.955       31     29.3    1.160     0.70        4        6     2078  1311_RCP85_rainfed_15March_sandyloam.PRM
  Tot(63)       15        3     2079    290.2    555.1   1560.4   750.00      0.0    290.2      0.0      5.0      0.0    113.7       28     89.1     89.1       77     0.000     0.000     0.000     0.000       65        0        0        0        0       42       21     5.047       39     18.9    0.955     0.56        5        6     2079  1311_RCP85_rainfed_15March_sandyloam.PRM
  Tot(64)       15        3     2080    489.8    500.5   1570.0   758.00      0.0    489.8      0.0    283.4      0.0    123.8       36     89.8     89.8       77     0.000     0.000     0.000     0.000       78        0        0        0        0       43       12     4.912       36     30.7    1.508     0.72        5        6     2080  1311_RCP85_rainfed_15March_sandyloam.PRM
  Tot(65)       15        3     2081    280.2    558.5   1558.4   767.00      0.0    280.2      0.0     36.0      0.0    103.7       24    113.9    113.9       87     0.000     0.000     0.000     0.000       78        0        0        0        0       41        7     6.681       50     30.4    2.028     0.94        5        6     2081  1311_RCP85_rainfed_15March_sandyloam.PRM
  Tot(66)       15        3     2082    534.6    395.0   1570.1   775.00      0.0    534.6      0.0    260.5      0.0    126.4       56    153.2    153.2      100     0.000     0.000     0.000     0.000       84        0        0        0        0        3        0    13.892       97     30.1    4.178     1.51       11        6     2082  1311_RCP85_rainfed_15March_sandyloam.PRM
  Tot(67)       15        3     2083    232.8    579.4   1569.2   784.00      0.0    232.8      0.0     60.1      0.0     98.0       23    131.9    131.9      100     0.000     0.000     0.000     0.000       78        0        0        0        0       33        0     8.195       61     30.1    2.463     1.08        5        6     2083  1311_RCP85_rainfed_15March_sandyloam.PRM
  Tot(68)       15        3     2084    184.3    544.9   1570.5   792.00      0.0    184.3      0.0      0.0      0.0    114.7       33    152.2    152.2       95     0.000     0.000     0.000     0.000       78        0        0        0        0       22        2    10.169       75     30.2    3.069     1.16        5        6     2084  1311_RCP85_rainfed_15March_sandyloam.PRM
  Tot(69)       15        3     2085    201.0    494.2   1571.9   801.00      0.0    201.0      0.0     17.1      0.0    106.2       30     80.7     80.7       79     0.000     0.000     0.000     0.000       65        0        0        0        0       40       20     5.614       43     18.0    1.008     0.64        5        6     2085  1311_RCP85_rainfed_15March_sandyloam.PRM
  Tot(70)       15        3     2086    123.9    503.7   1575.1   810.00      0.0    123.9      0.0      0.0      0.0     85.5       24    109.2    109.2       89     0.000     0.000     0.000     0.000       77        0        0        0        0       37        5     7.894       60     30.7    2.425     1.25        4        6     2086  1311_RCP85_rainfed_15March_sandyloam.PRM
  Tot(71)       15        3     2087    200.7    553.3   1562.8   818.00      0.0    200.7      0.0     11.9      0.0    105.6       24    100.6    100.6       94     0.000     0.000     0.000     0.000       76        0        0        0        0       47        3     6.642       50     30.7    2.038     1.00        3        6     2087  1311_RCP85_rainfed_15March_sandyloam.PRM
  Tot(72)       15        3     2088    243.3    532.3   1571.3   827.00      0.0    243.3      0.0     13.8      0.0    101.0       27    123.1    123.1       94     0.000     0.000     0.000     0.000       78        0        0        0        0       32        3     8.658       64     30.5    2.642     1.20        5        6     2088  1311_RCP85_rainfed_15March_sandyloam.PRM
  Tot(73)       15        3     2089     86.3    578.7   1566.3   836.00      0.0     86.3      0.0      0.0      0.0     84.5       18     69.5     69.5       78     0.000     0.000     0.000     0.000       75        0        0        0        0       49       14     3.661       29      3.6    0.131     0.09        2        6     2089  1311_RCP85_rainfed_15March_sandyloam.PRM
  Tot(74)       15        3     2090     46.7    562.0   1575.6   845.00      0.0     46.7      0.0      0.0      0.0     66.8       16     79.5     79.5       77     0.000     0.000     0.000     0.000       62        0        0        0        0       44       20     4.711       36     18.1    0.852     0.60        2        6     2090  1311_RCP85_rainfed_15March_sandyloam.PRM
  Tot(75)       15        3     2091    171.8    523.0   1559.3   854.00      0.0    171.8      0.0     46.5      0.0     73.7       24    152.7    152.7       94     0.000     0.000     0.000     0.000       77        0        0        0        0       14        9    10.767       80     29.8    3.213     1.42        4        6     2091  1311_RCP85_rainfed_15March_sandyloam.PRM
  Tot(76)       15        3     2092    292.2    478.5   1565.3   863.00      0.0    292.2      0.0     21.2      0.0    100.2       36    162.9    162.9      100     0.000     0.000     0.000     0.000       78        0        0        0        0       13        0    11.768       87     30.0    3.535     1.35        5        6     2092  1311_RCP85_rainfed_15March_sandyloam.PRM
  Tot(77)       15        3     2093    169.7    494.1   1567.9   872.00      0.0    169.7      0.0      0.0      0.0    113.7       34     90.2     90.2       74     0.000     0.000     0.000     0.000       76        0        0        0        0       41       17     5.573       43     30.4    1.694     0.84        3        6     2093  1311_RCP85_rainfed_15March_sandyloam.PRM
  Tot(78)       15        3     2094    326.1    465.4   1572.1   881.00      0.0    326.1      0.0     79.4      0.0    136.8       48    118.5    118.5       83     0.000     0.000     0.000     0.000       79        0        0        0        0       36        8     8.612       63     30.6    2.638     1.05        6        6     2094  1311_RCP85_rainfed_15March_sandyloam.PRM
  Tot(79)       15        3     2095    210.3    467.5   1570.5   890.00      0.0    210.3      0.0      0.0      0.0    104.9       35    127.5    127.5       98     0.000     0.000     0.000     0.000       77        0        0        0        0       24        1    10.731       80     30.1    3.234     1.41        5        6     2095  1311_RCP85_rainfed_15March_sandyloam.PRM
  Tot(80)       15        3     2096    248.7    546.4   1567.3   899.00      0.0    248.7      0.0      7.4      0.0    113.8       37    143.2    143.2       86     0.000     0.000     0.000     0.000       77        0        0        0        0       27        7     9.389       70     30.6    2.874     1.13        4        6     2096  1311_RCP85_rainfed_15March_sandyloam.PRM
  Tot(81)       15        3     2097    132.4    540.3   1573.2   908.00      0.0    132.4      0.0      0.0      0.0    102.4       24     89.8     89.8       81     0.000     0.000     0.000     0.000       75        0        0        0        0       47       11     5.452       43     30.5    1.662     0.88        2        6     2097  1311_RCP85_rainfed_15March_sandyloam.PRM
  Tot(82)       15        3     2098    197.8    505.0   1573.0   917.00      0.0    197.8      0.0      0.0      0.0    109.9       30    110.5    110.5       92     0.000     0.000     0.000     0.000       77        0        0        0        0       40        4     8.045       61     30.5    2.453     1.12        4        6     2098  1311_RCP85_rainfed_15March_sandyloam.PRM
  Tot(83)       15        3     2099    439.5    497.2   1574.3   927.00      0.0    439.5      0.0    150.2      0.0     84.5       28    147.3    147.3       89     0.000     0.000     0.000     0.000       77        0        0        0        0       27        5     9.702       74     30.7    2.981     1.29        4        6     2099  1311_RCP85_rainfed_15March_sandyloam.PRM
