AquaCrop 7.0 (August 2022) - Output created on (date) : 27-10-2022   at (time) : 12:37:20

    RunNr     Day1   Month1    Year1     Rain      ETo       GD     CO2      Irri   Infilt   Runoff    Drain   Upflow        E     E/Ex       Tr      TrW   Tr/Trx    SaltIn   SaltOut    SaltUp  SaltProf     Cycle   SaltStr  FertStr  WeedStr  TempStr   ExpStr   StoStr  BioMass  Brelative   HI    Y(dry)  Y(fresh)    WPet      Bin     Bout     DayN   MonthN    YearN
                                           mm       mm  degC.day    ppm        mm       mm       mm       mm       mm       mm        %       mm       mm        %    ton/ha    ton/ha    ton/ha    ton/ha      days       %        %        %        %        %        %    ton/ha        %       %    ton/ha   ton/ha    kg/m3   ton/ha   ton/ha
   Tot(1)       15        3     2011     66.9    278.7    576.2   391.63      0.0     66.6      0.3      0.3      0.0     47.7       71    138.2    140.7       72     0.000     0.000     0.000     0.000       72        0        0        0       36        3       13     5.573       79     48.7    2.713    3.191     1.46    0.000    0.000        3        6     2011  GreenPeas_Hist_North.PRM
   Tot(2)       15        3     2012    134.1    281.8    711.2   393.82      0.0    128.9      5.2     16.4      0.0     57.7       66    166.6    166.1       83     0.000     0.000     0.000     0.000       72        0        0        0       25        5       11     7.096       80     48.8    3.462    4.073     1.54    0.000    0.000        3        6     2012  GreenPeas_Hist_North.PRM
   Tot(3)       15        3     2013    198.5    266.1    653.6   396.48      0.0    173.5     25.0     28.4      0.0     62.5       81    164.4    163.3       84     0.000     0.000     0.000     0.000       72        0        0        0       30       19        9     6.629       79     49.0    3.250    3.823     1.43    0.000    0.000        3        6     2013  GreenPeas_Hist_North.PRM
   Tot(4)       15        3     2014    206.8    249.5    635.2   398.55      0.0    196.9      9.9     17.5      0.0     48.4       68    172.8    171.8      100     0.000     0.000     0.000     0.000       72        0        0        0       28        1        0     8.114       98     51.9    4.209    4.951     1.90    0.000    0.000        3        6     2014  GreenPeas_Hist_North.PRM
   Tot(5)       15        3     2015     67.2    281.0    583.6   401.00      0.0     65.5      1.7      8.7      0.0     55.6       75    124.5    127.8       64     0.000     0.000     0.000     0.000       72        0        0        0       34        8       21     5.531       71     45.4    2.512    2.955     1.39    0.000    0.000        3        6     2015  GreenPeas_Hist_North.PRM
   Tot(6)       15        3     2016    119.2    259.1    620.3   403.00      0.0    118.5      0.7      1.0      0.0     54.0       64    152.8    149.8       90     0.000     0.000     0.000     0.000       72        0        0        0       23       20        7     7.287       81     49.7    3.619    4.258     1.75    0.000    0.000        3        6     2016  GreenPeas_Hist_North.PRM
   Tot(7)       15        3     2017    131.0    277.8    557.3   405.00      0.0    129.0      2.0      6.3      0.0     51.8       77    171.4    172.2       95     0.000     0.000     0.000     0.000       72        0        0        0       33        0        2     6.854       95     51.4    3.523    4.145     1.58    0.000    0.000        3        6     2017  GreenPeas_Hist_North.PRM
   Tot(8)       15        3     2018     91.7    309.1    747.7   408.00      0.0     75.1     16.6     31.6      0.0     49.2       50    119.9    122.4       53     0.000     0.000     0.000     0.000       72        0        0        0       16       37       34     5.448       53     39.6    2.158    2.538     1.28    0.000    0.000        3        6     2018  GreenPeas_Hist_North.PRM
   Tot(9)       15        3     2019    198.4    249.4    597.5   410.00      0.0    190.5      7.9      0.6      0.0     46.7       59    157.5    154.1      100     0.000     0.000     0.000     0.000       72        0        0        0       35        2        0     7.172       93     52.1    3.736    4.395     1.83    0.000    0.000        3        6     2019  GreenPeas_Hist_North.PRM
