AquaCrop 7.0 (August 2022) - Output created on (date) : 27-10-2022   at (time) : 12:37:24

    RunNr     Day1   Month1    Year1     Rain      ETo       GD     CO2      Irri   Infilt   Runoff    Drain   Upflow        E     E/Ex       Tr      TrW   Tr/Trx    SaltIn   SaltOut    SaltUp  SaltProf     Cycle   SaltStr  FertStr  WeedStr  TempStr   ExpStr   StoStr  BioMass  Brelative   HI    Y(dry)  Y(fresh)    WPet      Bin     Bout     DayN   MonthN    YearN
                                           mm       mm  degC.day    ppm        mm       mm       mm       mm       mm       mm        %       mm       mm        %    ton/ha    ton/ha    ton/ha    ton/ha      days       %        %        %        %        %        %    ton/ha        %       %    ton/ha   ton/ha    kg/m3   ton/ha   ton/ha
   Tot(1)       15        3     2011    121.6    283.0    673.7   391.63      0.0    119.0      2.6     14.7      0.0     39.5       67    165.6    168.1       80     0.000     0.000     0.000     0.000       74        0        0        0       28        2       11     6.981       86     47.8    3.340    3.929     1.63    0.000    0.000        5        6     2011  GreenPeas_Hist_South.PRM
   Tot(2)       15        3     2012    138.8    314.9    825.4   393.82      0.0    136.7      2.1      0.0      0.0     51.8       62    176.5    175.1       75     0.000     0.000     0.000     0.000       74        0        0        0       17       28       15     7.727       79     48.0    3.706    4.360     1.62    0.000    0.000        5        6     2012  GreenPeas_Hist_South.PRM
   Tot(3)       15        3     2013    132.5    306.6    766.3   396.48      0.0    129.3      3.2     21.6      0.0     63.9       77    146.3    146.6       63     0.000     0.000     0.000     0.000       74        0        0        0       22       26       26     5.880       62     41.6    2.445    2.876     1.16    0.000    0.000        5        6     2013  GreenPeas_Hist_South.PRM
   Tot(4)       15        3     2014    176.7    262.2    739.9   398.55      0.0    174.6      2.1      3.2      0.0     44.0       63    188.5    188.5       98     0.000     0.000     0.000     0.000       74        0        0        0       19        1        1     9.407       98     51.0    4.799    5.645     2.06    0.000    0.000        5        6     2014  GreenPeas_Hist_South.PRM
   Tot(5)       15        3     2015    117.0    307.2    691.9   401.00      0.0    111.8      5.2     39.6      0.0     53.2       84    125.1    123.4       54     0.000     0.000     0.000     0.000       74        0        0        0       26       18       29     5.911       67     39.3    2.321    2.730     1.30    0.000    0.000        5        6     2015  GreenPeas_Hist_South.PRM
   Tot(6)       15        3     2016    171.5    266.9    714.0   403.00      0.0    170.2      1.3      6.6      0.0     42.8       59    192.8    192.1       97     0.000     0.000     0.000     0.000       74        0        0        0       16        1        2     9.469       93     52.1    4.937    5.808     2.10    0.000    0.000        5        6     2016  GreenPeas_Hist_South.PRM
   Tot(7)       15        3     2017    171.6    288.0    671.9   405.00      0.0    148.3     23.3     37.3      0.0     49.8       72    163.9    167.5       78     0.000     0.000     0.000     0.000       74        0        0        0       24        2       13     7.281       84     48.5    3.534    4.158     1.65    0.000    0.000        5        6     2017  GreenPeas_Hist_South.PRM
   Tot(8)       15        3     2018     94.3    320.6    860.3   408.00      0.0     87.8      6.5     36.1      0.0     40.2       45    119.4    120.2       48     0.000     0.000     0.000     0.000       74        0        0        0       12       42       37     5.776       52     38.0    2.196    2.584     1.38    0.000    0.000        5        6     2018  GreenPeas_Hist_South.PRM
   Tot(9)       15        3     2019    134.1    284.7    714.0   410.00      0.0    133.9      0.2      0.0      0.0     39.6       48    174.2    169.9       89     0.000     0.000     0.000     0.000       74        0        0        0       26        5        6     7.937       89     51.3    4.069    4.787     1.90    0.000    0.000        5        6     2019  GreenPeas_Hist_South.PRM
