AquaCrop 7.0 (August 2022) - Output created on (date) : 01-12-2022   at (time) : 18:08:36

    RunNr     Day1   Month1    Year1     Rain      ETo       GD     CO2      Irri   Infilt   Runoff    Drain   Upflow        E     E/Ex       Tr      TrW   Tr/Trx    SaltIn   SaltOut    SaltUp  SaltProf     Cycle   SaltStr  FertStr  WeedStr  TempStr   ExpStr   StoStr  BioMass  Brelative   HI    Y(dry)  Y(fresh)    WPet      Bin     Bout     DayN   MonthN    YearN
                                           mm       mm  degC.day    ppm        mm       mm       mm       mm       mm       mm        %       mm       mm        %    ton/ha    ton/ha    ton/ha    ton/ha      days       %        %        %        %        %        %    ton/ha        %       %    ton/ha   ton/ha    kg/m3   ton/ha   ton/ha
   Tot(1)       22        5     2020    139.3    533.4   1290.4   412.00      0.0    136.9      2.4      8.7      0.0    103.8       42    242.2    242.5       84     0.000     0.000     0.000     0.000      107        0        0        0        6       15       12    16.996       74     40.3    6.848   -9.900     1.98    0.000    0.000       11        9     2020  Maize_short_Chisinau_22May_Optimum_26_NCC.PRM
   Tot(2)       22        5     2021    112.0    556.1   1200.2   414.00      0.0    108.3      3.7      3.1      0.0     94.1       39    230.2    231.1       78     0.000     0.000     0.000     0.000      105        0        0        0       14        8       20    14.405       64     39.0    5.625   -9.900     1.74    0.000    0.000       11        9     2021  Maize_short_Chisinau_22May_Optimum_26_NCC.PRM
   Tot(3)       22        5     2022    109.1    638.8   1510.8   417.00      0.0    107.8      1.3      7.1      0.0    123.0       31    177.6    177.6       76     0.000     0.000     0.000     0.000       91        0        0        0        1       30       20     9.402       39     28.0    2.634   -9.900     0.89    0.000    0.000       11        9     2022  Maize_short_Chisinau_22May_Optimum_26_NCC.PRM
   Tot(4)       22        5     2023    134.2    542.2   1302.4   419.00      0.0    127.6      6.6     14.7      0.0    120.0       47    212.2    212.2       76     0.000     0.000     0.000     0.000      106        0        0        0        8       20       21    14.056       61     39.5    5.546   -9.900     1.67    0.000    0.000       11        9     2023  Maize_short_Chisinau_22May_Optimum_26_NCC.PRM
   Tot(5)       22        5     2024    122.2    562.6   1223.9   421.00      0.0    115.6      6.6     14.3      0.0    116.0       44    204.4    204.4       72     0.000     0.000     0.000     0.000      104        0        0        0       13       22       24    12.449       54     39.3    4.898   -9.900     1.53    0.000    0.000       11        9     2024  Maize_short_Chisinau_22May_Optimum_26_NCC.PRM
   Tot(6)       22        5     2025    182.3    509.9   1239.6   423.00      0.0    172.3     10.0     28.4      0.0    131.7       65    226.1    226.1       78     0.000     0.000     0.000     0.000      102        0        0        0       13        9       19    14.294       61     38.3    5.473   -9.900     1.55    0.000    0.000       11        9     2025  Maize_short_Chisinau_22May_Optimum_26_NCC.PRM
   Tot(7)       22        5     2026    321.7    497.7   1120.1   424.00      0.0    273.6     48.1     40.4      0.0    141.4       69    244.4    243.9       86     0.000     0.000     0.000     0.000      107        0        0        0       17        4       10    16.907       80     39.8    6.726   -9.900     1.74    0.000    0.000       11        9     2026  Maize_short_Chisinau_22May_Optimum_26_NCC.PRM
   Tot(8)       22        5     2027    153.0    625.6   1484.7   426.00      0.0    152.0      1.0      2.2      0.0    141.1       42    219.8    220.3       78     0.000     0.000     0.000     0.000       96        0        0        0        2       23       19    12.101       50     33.1    4.000   -9.900     1.13    0.000    0.000       11        9     2027  Maize_short_Chisinau_22May_Optimum_26_NCC.PRM
   Tot(9)       22        5     2028     75.5    587.4   1370.4   428.00      0.0     75.5      0.0      0.0      0.0     79.3       26    211.9    211.9       78     0.000     0.000     0.000     0.000       99        0        0        0       10       22       19    12.925       53     35.9    4.646   -9.900     1.60    0.000    0.000       11        9     2028  Maize_short_Chisinau_22May_Optimum_26_NCC.PRM
  Tot(10)       22        5     2029    166.3    437.9    997.2   429.00      0.0    161.4      4.9     23.1      0.0    104.6       62    237.3    236.3       94     0.000     0.000     0.000     0.000      107        0        0        0       22        2        5    18.811       91     40.0    7.532   -9.900     2.20    0.000    0.000       11        9     2029  Maize_short_Chisinau_22May_Optimum_26_NCC.PRM
  Tot(11)       22        5     2030     95.8    639.4   1398.3   431.00      0.0     95.7      0.1      0.0      0.0    105.1       29    194.2    195.2       75     0.000     0.000     0.000     0.000       93        0        0        0        4       25       20    10.862       46     29.8    3.237   -9.900     1.10    0.000    0.000       11        9     2030  Maize_short_Chisinau_22May_Optimum_26_NCC.PRM
  Tot(12)       22        5     2031     35.9    625.3   1440.7   432.00      0.0     35.9      0.0      0.0      0.0     65.9       18    174.3    174.3       75     0.000     0.000     0.000     0.000       91        0        0        0        5       30       19     9.873       40     28.0    2.762   -9.900     1.16    0.000    0.000       11        9     2031  Maize_short_Chisinau_22May_Optimum_26_NCC.PRM
  Tot(13)       22        5     2032    105.0    545.4   1319.3   433.00      0.0    105.0      0.0      0.0      0.0     99.4       42    226.7    226.7       79     0.000     0.000     0.000     0.000      105        0        0        0        7        8       19    15.087       64     39.2    5.909   -9.900     1.81    0.000    0.000       11        9     2032  Maize_short_Chisinau_22May_Optimum_26_NCC.PRM
  Tot(14)       22        5     2033    136.6    545.4   1270.2   435.00      0.0    136.4      0.2      0.0      0.0    106.1       44    239.2    238.9       80     0.000     0.000     0.000     0.000      107        0        0        0       10       13       15    15.304       67     40.2    6.150   -9.900     1.78    0.000    0.000       11        9     2033  Maize_short_Chisinau_22May_Optimum_26_NCC.PRM
  Tot(15)       22        5     2034    190.5    524.8   1159.4   436.00      0.0    172.3     18.2     39.2      0.0    121.3       56    228.1    228.4       81     0.000     0.000     0.000     0.000      105        0        0        0       15        8       18    14.484       65     39.6    5.742   -9.900     1.64    0.000    0.000       11        9     2034  Maize_short_Chisinau_22May_Optimum_26_NCC.PRM
  Tot(16)       22        5     2035     55.3    579.5   1314.1   437.00      0.0     55.3      0.0      0.0      0.0     70.0       22    194.1    194.1       76     0.000     0.000     0.000     0.000       96        0        0        0        7       22       19    12.008       52     33.0    3.960   -9.900     1.51    0.000    0.000       11        9     2035  Maize_short_Chisinau_22May_Optimum_26_NCC.PRM
  Tot(17)       22        5     2036    145.3    476.0   1128.8   438.00      0.0    142.9      2.4      2.2      0.0    115.5       61    242.4    242.3       88     0.000     0.000     0.000     0.000      107        0        0        0       16        2       11    18.529       83     39.8    7.374   -9.900     2.06    0.000    0.000       11        9     2036  Maize_short_Chisinau_22May_Optimum_26_NCC.PRM
  Tot(18)       22        5     2037    121.4    561.4   1355.5   438.00      0.0    121.3      0.1      0.5      0.0     98.1       39    239.5    239.2       79     0.000     0.000     0.000     0.000      107        0        0        0        5       10       18    15.646       65     39.8    6.221   -9.900     1.84    0.000    0.000       11        9     2037  Maize_short_Chisinau_22May_Optimum_26_NCC.PRM
  Tot(19)       22        5     2038    115.9    621.4   1446.0   439.00      0.0    115.8      0.1      0.0      0.0    131.0       36    192.3    192.7       76     0.000     0.000     0.000     0.000       95        0        0        0        2       25       19    11.329       49     32.0    3.624   -9.900     1.16    0.000    0.000       11        9     2038  Maize_short_Chisinau_22May_Optimum_26_NCC.PRM
  Tot(20)       22        5     2039    113.5    518.7   1196.8   440.00      0.0    112.6      0.9      0.0      0.0     87.6       37    231.7    230.6       84     0.000     0.000     0.000     0.000      107        0        0        0       12       13       12    16.648       77     40.4    6.718   -9.900     2.10    0.000    0.000       11        9     2039  Maize_short_Chisinau_22May_Optimum_26_NCC.PRM
  Tot(21)       22        5     2040    125.0    618.8   1409.8   440.00      0.0    124.8      0.2      0.0      0.0    119.5       40    222.7    223.8       74     0.000     0.000     0.000     0.000       99        0        0        0        6       15       21    12.774       53     35.2    4.498   -9.900     1.32    0.000    0.000       11        9     2040  Maize_short_Chisinau_22May_Optimum_26_NCC.PRM
  Tot(22)       22        5     2041    220.1    476.6   1180.1   441.00      0.0    215.2      4.9      6.6      0.0    137.6       68    266.1    265.2       97     0.000     0.000     0.000     0.000      107        0        0        0       13       11        3    20.485       91     40.6    8.308   -9.900     2.06    0.000    0.000       11        9     2041  Maize_short_Chisinau_22May_Optimum_26_NCC.PRM
  Tot(23)       22        5     2042    104.0    574.9   1341.5   441.00      0.0    103.9      0.1      0.0      0.0    110.5       38    201.6    202.5       75     0.000     0.000     0.000     0.000       95        0        0        0        8       22       20    11.884       50     31.8    3.775   -9.900     1.27    0.000    0.000       11        9     2042  Maize_short_Chisinau_22May_Optimum_26_NCC.PRM
  Tot(24)       22        5     2043    125.3    517.3   1223.5   441.00      0.0    121.9      3.4     10.7      0.0    111.5       50    221.3    221.3       81     0.000     0.000     0.000     0.000      107        0        0        0       10       12       19    15.573       66     39.7    6.176   -9.900     1.86    0.000    0.000       11        9     2043  Maize_short_Chisinau_22May_Optimum_26_NCC.PRM
  Tot(25)       22        5     2044    148.3    552.0   1266.0   442.00      0.0    144.2      4.1      7.1      0.0    121.0       52    236.3    236.3       80     0.000     0.000     0.000     0.000      104        0        0        0       12        8       19    14.687       64     39.3    5.773   -9.900     1.62    0.000    0.000       11        9     2044  Maize_short_Chisinau_22May_Optimum_26_NCC.PRM
  Tot(26)       22        5     2045     88.1    569.6   1285.9   442.00      0.0     86.7      1.4      2.9      0.0    104.3       35    189.9    189.9       77     0.000     0.000     0.000     0.000       95        0        0        0        7       23       20    11.681       50     31.9    3.731   -9.900     1.28    0.000    0.000       11        9     2045  Maize_short_Chisinau_22May_Optimum_26_NCC.PRM
  Tot(27)       22        5     2046    140.4    597.2   1439.9   442.00      0.0    134.4      6.0      4.6      0.0    142.1       46    199.7    199.7       75     0.000     0.000     0.000     0.000       94        0        0        0        2       20       20    11.977       50     31.0    3.711   -9.900     1.09    0.000    0.000       11        9     2046  Maize_short_Chisinau_22May_Optimum_26_NCC.PRM
  Tot(28)       22        5     2047    166.5    486.2   1158.2   442.00      0.0    155.7     10.8     13.6      0.0    124.0       61    235.2    235.1       86     0.000     0.000     0.000     0.000      107        0        0        0       13        7       13    18.027       80     39.8    7.170   -9.900     2.00    0.000    0.000       11        9     2047  Maize_short_Chisinau_22May_Optimum_26_NCC.PRM
  Tot(29)       22        5     2048    118.0    532.6   1279.5   442.00      0.0    118.0      0.0      0.0      0.0    109.6       43    220.4    219.8       79     0.000     0.000     0.000     0.000      107        0        0        0       10       18       14    15.222       68     40.5    6.157   -9.900     1.87    0.000    0.000       11        9     2048  Maize_short_Chisinau_22May_Optimum_26_NCC.PRM
  Tot(30)       22        5     2049    139.6    555.9   1321.4   443.00      0.0    137.7      1.9      0.9      0.0    127.6       43    205.9    206.6       81     0.000     0.000     0.000     0.000      107        0        0        0        7       26       16    13.126       56     40.4    5.300   -9.900     1.59    0.000    0.000       11        9     2049  Maize_short_Chisinau_22May_Optimum_26_NCC.PRM
  Tot(31)       22        5     2050    159.6    588.7   1349.7   443.00      0.0    141.4     18.2      0.0      0.0    109.9       32    177.7    177.7       75     0.000     0.000     0.000     0.000       92        0        0        0        6       28       20    10.226       43     28.9    2.958   -9.900     1.12    0.000    0.000       11        9     2050  Maize_short_Chisinau_22May_Optimum_26_NCC.PRM
  Tot(32)       22        5     2051    139.9    515.2   1278.5   443.00      0.0    139.0      0.9      5.4      0.0    111.7       51    235.2    235.0       82     0.000     0.000     0.000     0.000      107        0        0        0        9        9       15    16.263       70     40.0    6.505   -9.900     1.88    0.000    0.000       11        9     2051  Maize_short_Chisinau_22May_Optimum_26_NCC.PRM
  Tot(33)       22        5     2052    213.0    459.1   1108.4   443.00      0.0    187.5     25.5     32.7      0.0    103.7       52    246.0    246.0       97     0.000     0.000     0.000     0.000      107        0        0        0       18       10        3    19.667       93     40.6    7.986   -9.900     2.28    0.000    0.000       11        9     2052  Maize_short_Chisinau_22May_Optimum_26_NCC.PRM
  Tot(34)       22        5     2053    221.9    492.2   1267.4   443.00      0.0    210.6     11.3     30.1      0.0    122.5       66    245.5    245.2       82     0.000     0.000     0.000     0.000      107        0        0        0        8       12       15    17.020       73     39.8    6.770   -9.900     1.84    0.000    0.000       11        9     2053  Maize_short_Chisinau_22May_Optimum_26_NCC.PRM
  Tot(35)       22        5     2054     81.9    659.1   1412.5   443.00      0.0     81.9      0.0      0.0      0.0     96.8       24    185.4    185.9       76     0.000     0.000     0.000     0.000       91        0        0        0        2       28       19    10.026       42     28.3    2.836   -9.900     1.04    0.000    0.000       11        9     2054  Maize_short_Chisinau_22May_Optimum_26_NCC.PRM
  Tot(36)       22        5     2055    163.7    567.4   1339.5   443.00      0.0    138.3     25.4     33.6      0.0    111.3       40    205.4    205.4       77     0.000     0.000     0.000     0.000       96        0        0        0        7       19       19    12.374       52     33.1    4.092   -9.900     1.31    0.000    0.000       11        9     2055  Maize_short_Chisinau_22May_Optimum_26_NCC.PRM
  Tot(37)       22        5     2056    209.2    566.4   1352.0   442.00      0.0    199.5      9.7      7.2      0.0    117.4       48    277.3    276.5       85     0.000     0.000     0.000     0.000      107        0        0        0        7        5       13    17.636       74     39.6    6.980   -9.900     1.77    0.000    0.000       11        9     2056  Maize_short_Chisinau_22May_Optimum_26_NCC.PRM
  Tot(38)       22        5     2057    239.1    533.6   1371.5   442.00      0.0    233.3      5.8      0.0      0.0    146.7       68    298.0    298.0       91     0.000     0.000     0.000     0.000      107        0        0        0        6        2        8    20.759       86     39.9    8.276   -9.900     1.86    0.000    0.000       11        9     2057  Maize_short_Chisinau_22May_Optimum_26_NCC.PRM
  Tot(39)       22        5     2058    167.6    571.3   1405.0   442.00      0.0    161.2      6.4     13.1      0.0    122.4       41    230.5    231.3       82     0.000     0.000     0.000     0.000      107        0        0        0        6       25       15    14.961       64     40.5    6.056   -9.900     1.72    0.000    0.000       11        9     2058  Maize_short_Chisinau_22May_Optimum_26_NCC.PRM
  Tot(40)       22        5     2059    111.3    570.3   1348.2   442.00      0.0    108.5      2.8      3.7      0.0    104.2       36    213.9    213.9       81     0.000     0.000     0.000     0.000      102        0        0        0        9       19       18    13.304       58     39.2    5.217   -9.900     1.64    0.000    0.000       11        9     2059  Maize_short_Chisinau_22May_Optimum_26_NCC.PRM
  Tot(41)       22        5     2060    104.7    546.0   1322.8   442.00      0.0    104.3      0.4      0.9      0.0    110.6       42    206.9    206.9       77     0.000     0.000     0.000     0.000       99        0        0        0        6       16       19    13.205       57     35.8    4.723   -9.900     1.49    0.000    0.000       11        9     2060  Maize_short_Chisinau_22May_Optimum_26_NCC.PRM
  Tot(42)       22        5     2061    173.2    568.9   1285.0   441.00      0.0    156.1     17.1     21.1      0.0    117.7       47    238.1    238.1       80     0.000     0.000     0.000     0.000      104        0        0        0        8        9       19    15.080       63     39.2    5.918   -9.900     1.67    0.000    0.000       11        9     2061  Maize_short_Chisinau_22May_Optimum_26_NCC.PRM
  Tot(43)       22        5     2062     87.5    601.8   1358.5   441.00      0.0     87.5      0.0      0.0      0.0    108.2       29    183.9    183.9       80     0.000     0.000     0.000     0.000       98        0        0        0        5       30       18    11.294       47     35.3    3.985   -9.900     1.38    0.000    0.000       11        9     2062  Maize_short_Chisinau_22May_Optimum_26_NCC.PRM
  Tot(44)       22        5     2063     97.2    604.8   1325.0   441.00      0.0     94.3      2.9      9.2      0.0     93.6       31    204.3    204.3       74     0.000     0.000     0.000     0.000       94        0        0        0       12       19       21    11.781       49     30.6    3.605   -9.900     1.22    0.000    0.000       11        9     2063  Maize_short_Chisinau_22May_Optimum_26_NCC.PRM
  Tot(45)       22        5     2064    109.9    596.6   1379.7   440.00      0.0    109.6      0.3      0.0      0.0    120.7       38    198.4    198.4       75     0.000     0.000     0.000     0.000       96        0        0        0        6       21       20    12.034       52     32.8    3.952   -9.900     1.29    0.000    0.000       11        9     2064  Maize_short_Chisinau_22May_Optimum_26_NCC.PRM
  Tot(46)       22        5     2065     99.7    595.9   1330.7   440.00      0.0     96.7      3.0      4.4      0.0    113.0       37    195.8    195.8       75     0.000     0.000     0.000     0.000      107        0        0        0        6       20       27    12.424       52     33.7    4.191   -9.900     1.36    0.000    0.000       11        9     2065  Maize_short_Chisinau_22May_Optimum_26_NCC.PRM
  Tot(47)       22        5     2066     64.4    658.8   1405.1   440.00      0.0     60.4      4.0      8.8      0.0     73.9       19    184.1    184.1       74     0.000     0.000     0.000     0.000       92        0        0        0        4       28       19    10.184       43     28.8    2.936   -9.900     1.15    0.000    0.000       11        9     2066  Maize_short_Chisinau_22May_Optimum_26_NCC.PRM
  Tot(48)       22        5     2067    152.8    509.4   1273.6   439.00      0.0    149.5      3.3      7.2      0.0    133.2       59    223.4    223.4       81     0.000     0.000     0.000     0.000      107        0        0        0       10       14       18    15.468       67     39.9    6.166   -9.900     1.73    0.000    0.000       11        9     2067  Maize_short_Chisinau_22May_Optimum_26_NCC.PRM
  Tot(49)       22        5     2068    217.4    531.5   1377.5   439.00      0.0    213.9      3.5     10.5      0.0    131.8       58    282.3    281.2       90     0.000     0.000     0.000     0.000      107        0        0        0        6       18        8    19.599       81     40.6    7.951   -9.900     1.92    0.000    0.000       11        9     2068  Maize_short_Chisinau_22May_Optimum_26_NCC.PRM
  Tot(50)       22        5     2069    111.9    591.7   1328.8   438.00      0.0    109.0      2.9      0.9      0.0     96.5       33    227.3    228.4       78     0.000     0.000     0.000     0.000      101        0        0        0       10       19       19    13.343       58     37.6    5.017   -9.900     1.56    0.000    0.000       11        9     2069  Maize_short_Chisinau_22May_Optimum_26_NCC.PRM
  Tot(51)       22        5     2070    116.7    567.2   1343.2   437.00      0.0    115.8      0.9      0.0      0.0    123.8       43    204.9    204.9       78     0.000     0.000     0.000     0.000      100        0        0        0        5       18       19    13.104       56     37.0    4.851   -9.900     1.49    0.000    0.000       11        9     2070  Maize_short_Chisinau_22May_Optimum_26_NCC.PRM
  Tot(52)       22        5     2071    131.8    556.8   1306.3   437.00      0.0    129.0      2.8      0.0      0.0    105.8       37    211.1    210.6       79     0.000     0.000     0.000     0.000      107        0        0        0        8       19       16    14.225       62     40.2    5.719   -9.900     1.80    0.000    0.000       11        9     2071  Maize_short_Chisinau_22May_Optimum_26_NCC.PRM
  Tot(53)       22        5     2072    182.9    470.1   1208.4   436.00      0.0    178.7      4.2      5.1      0.0    115.4       70    269.5    269.9       91     0.000     0.000     0.000     0.000      107        0        0        0        8        1        8    20.355       89     39.8    8.103   -9.900     2.11    0.000    0.000       11        9     2072  Maize_short_Chisinau_22May_Optimum_26_NCC.PRM
  Tot(54)       22        5     2073     74.5    610.9   1378.3   436.00      0.0     70.8      3.7     10.7      0.0     81.0       24    186.9    187.0       76     0.000     0.000     0.000     0.000       92        0        0        0        7       26       19    10.674       44     29.2    3.114   -9.900     1.17    0.000    0.000       11        9     2073  Maize_short_Chisinau_22May_Optimum_26_NCC.PRM
  Tot(55)       22        5     2074    214.7    436.0   1119.2   435.00      0.0    209.5      5.2     13.5      0.0    109.0       58    231.8    229.1      100     0.000     0.000     0.000     0.000      107        0        0        0       16        1        0    20.094       97     40.0    8.041   -9.900     2.36    0.000    0.000       11        9     2074  Maize_short_Chisinau_22May_Optimum_26_NCC.PRM
  Tot(56)       22        5     2075     98.9    579.1   1370.9   435.00      0.0     98.6      0.3      0.0      0.0    114.6       37    198.3    200.8       78     0.000     0.000     0.000     0.000      107        0        0        0        4       23       22    12.527       53     40.0    5.008   -9.900     1.60    0.000    0.000       11        9     2075  Maize_short_Chisinau_22May_Optimum_26_NCC.PRM
  Tot(57)       22        5     2076    201.7    555.7   1308.7   434.00      0.0    197.7      4.0     12.2      0.0    154.4       60    221.8    221.2       78     0.000     0.000     0.000     0.000      107        0        0        0       11       17       15    14.067       62     40.1    5.644   -9.900     1.50    0.000    0.000       11        9     2076  Maize_short_Chisinau_22May_Optimum_26_NCC.PRM
  Tot(58)       22        5     2077    197.4    464.1   1198.6   433.00      0.0    194.0      3.4      3.3      0.0    110.1       58    262.7    263.0       98     0.000     0.000     0.000     0.000      107        0        0        0       13        4        1    20.734       95     40.2    8.327   -9.900     2.23    0.000    0.000       11        9     2077  Maize_short_Chisinau_22May_Optimum_26_NCC.PRM
  Tot(59)       22        5     2078    177.7    608.9   1406.1   433.00      0.0    172.6      5.1     10.4      0.0    153.1       48    201.7    202.1       74     0.000     0.000     0.000     0.000       95        0        0        0        4       21       20    11.794       51     31.7    3.734   -9.900     1.08    0.000    0.000       11        9     2078  Maize_short_Chisinau_22May_Optimum_26_NCC.PRM
  Tot(60)       22        5     2079    113.8    603.6   1328.4   432.00      0.0    106.6      7.2      9.4      0.0     96.0       30    209.2    209.0       77     0.000     0.000     0.000     0.000      107        0        0        0       10       23       21    12.204       52     40.1    4.898   -9.900     1.61    0.000    0.000       11        9     2079  Maize_short_Chisinau_22May_Optimum_26_NCC.PRM
  Tot(61)       22        5     2080    126.3    561.4   1323.6   432.00      0.0    125.7      0.6      0.3      0.0    120.2       43    207.7    207.9       77     0.000     0.000     0.000     0.000       99        0        0        0        6       16       19    12.683       54     35.9    4.558   -9.900     1.44    0.000    0.000       11        9     2080  Maize_short_Chisinau_22May_Optimum_26_NCC.PRM
  Tot(62)       22        5     2081    125.4    591.8   1402.8   431.00      0.0    124.6      0.8      1.2      0.0    138.2       44    197.7    197.7       76     0.000     0.000     0.000     0.000       95        0        0        0        3       20       19    12.145       50     32.1    3.897   -9.900     1.17    0.000    0.000       11        9     2081  Maize_short_Chisinau_22May_Optimum_26_NCC.PRM
  Tot(63)       22        5     2082    168.2    497.0   1253.0   431.00      0.0    164.4      3.8     12.6      0.0    114.4       54    253.8    252.9       88     0.000     0.000     0.000     0.000      107        0        0        0        8        6       10    19.199       83     40.0    7.681   -9.900     2.09    0.000    0.000       11        9     2082  Maize_short_Chisinau_22May_Optimum_26_NCC.PRM
  Tot(64)       22        5     2083    110.0    565.2   1358.4   430.00      0.0    110.0      0.0      0.0      0.0    100.0       41    232.9    233.7       75     0.000     0.000     0.000     0.000      105        0        0        0        5       10       22    14.472       61     38.9    5.632   -9.900     1.69    0.000    0.000       11        9     2083  Maize_short_Chisinau_22May_Optimum_26_NCC.PRM
  Tot(65)       22        5     2084    112.8    592.1   1475.1   429.00      0.0    111.0      1.8      3.6      0.0    123.9       39    197.7    197.4       75     0.000     0.000     0.000     0.000      107        0        0        0        4       27       23    11.894       49     40.0    4.758   -9.900     1.48    0.000    0.000       11        9     2084  Maize_short_Chisinau_22May_Optimum_26_NCC.PRM
  Tot(66)       22        5     2085    201.3    513.5   1182.8   429.00      0.0    173.7     27.6     28.6      0.0    119.1       55    230.9    231.1       81     0.000     0.000     0.000     0.000      107        0        0        0       11        9       15    15.233       70     39.9    6.082   -9.900     1.74    0.000    0.000       11        9     2085  Maize_short_Chisinau_22May_Optimum_26_NCC.PRM
  Tot(67)       22        5     2086     49.0    622.5   1407.6   428.00      0.0     49.0      0.0      0.0      0.0     78.4       21    172.4    172.4       72     0.000     0.000     0.000     0.000       89        0        0        0        4       29       20     8.999       38     25.8    2.322   -9.900     0.94    0.000    0.000       11        9     2086  Maize_short_Chisinau_22May_Optimum_26_NCC.PRM
  Tot(68)       22        5     2087    156.9    559.9   1277.9   428.00      0.0    153.1      3.8      6.3      0.0    130.9       51    230.0    229.5       76     0.000     0.000     0.000     0.000      107        0        0        0       10       17       19    15.043       64     40.1    6.037   -9.900     1.67    0.000    0.000       11        9     2087  Maize_short_Chisinau_22May_Optimum_26_NCC.PRM
  Tot(69)       22        5     2088    191.1    518.4   1266.0   427.00      0.0    184.4      6.7     16.7      0.0    141.8       68    243.9    244.1       80     0.000     0.000     0.000     0.000      107        0        0        0       10       11       18    16.334       70     39.9    6.520   -9.900     1.69    0.000    0.000       11        9     2088  Maize_short_Chisinau_22May_Optimum_26_NCC.PRM
  Tot(70)       22        5     2089    113.9    555.5   1271.6   427.00      0.0    113.7      0.2      3.1      0.0     86.6       33    215.6    215.9       77     0.000     0.000     0.000     0.000      107        0        0        0        8       17       18    13.190       56     40.1    5.286   -9.900     1.75    0.000    0.000       11        9     2089  Maize_short_Chisinau_22May_Optimum_26_NCC.PRM
  Tot(71)       22        5     2090    146.8    538.0   1219.7   426.00      0.0    137.7      9.1     14.0      0.0    100.9       42    239.2    239.2       84     0.000     0.000     0.000     0.000      107        0        0        0        9        9       17    15.690       68     39.8    6.245   -9.900     1.84    0.000    0.000       11        9     2090  Maize_short_Chisinau_22May_Optimum_26_NCC.PRM
  Tot(72)       22        5     2091    131.9    573.8   1319.7   425.00      0.0    130.3      1.6      0.0      0.0    120.3       39    197.4    197.2       79     0.000     0.000     0.000     0.000      107        0        0        0       12       27       13    11.720       52     40.5    4.747   -9.900     1.49    0.000    0.000       11        9     2091  Maize_short_Chisinau_22May_Optimum_26_NCC.PRM
  Tot(73)       22        5     2092    198.4    498.2   1250.6   425.00      0.0    181.0     17.4     38.4      0.0    125.0       58    232.5    231.9       82     0.000     0.000     0.000     0.000      107        0        0        0        8       12       15    16.552       71     40.1    6.645   -9.900     1.86    0.000    0.000       11        9     2092  Maize_short_Chisinau_22May_Optimum_26_NCC.PRM
  Tot(74)       22        5     2093    126.6    527.5   1222.2   424.00      0.0    125.9      0.7      0.0      0.0    102.6       42    237.1    237.6       84     0.000     0.000     0.000     0.000      107        0        0        0       12       10       14    16.585       73     40.1    6.653   -9.900     1.96    0.000    0.000       11        9     2093  Maize_short_Chisinau_22May_Optimum_26_NCC.PRM
  Tot(75)       22        5     2094    128.0    627.8   1472.5   424.00      0.0    125.3      2.7      6.1      0.0    107.7       29    208.4    208.0       80     0.000     0.000     0.000     0.000      107        0        0        0        4       35       13    12.053       51     40.6    4.892   -9.900     1.55    0.000    0.000       11        9     2094  Maize_short_Chisinau_22May_Optimum_26_NCC.PRM
  Tot(76)       22        5     2095    107.6    601.0   1375.8   423.00      0.0    107.6      0.0      0.0      0.0     91.4       29    232.3    232.8       81     0.000     0.000     0.000     0.000      107        0        0        0        6       22       17    14.312       62     40.2    5.756   -9.900     1.78    0.000    0.000       11        9     2095  Maize_short_Chisinau_22May_Optimum_26_NCC.PRM
  Tot(77)       22        5     2096    243.9    442.6   1110.1   423.00      0.0    230.2     13.7     37.6      0.0    111.7       69    265.3    265.5       98     0.000     0.000     0.000     0.000      107        0        0        0       21        3        2    20.647       95     40.1    8.290   -9.900     2.20    0.000    0.000       11        9     2096  Maize_short_Chisinau_22May_Optimum_26_NCC.PRM
  Tot(78)       22        5     2097     83.7    542.3   1286.1   422.00      0.0     83.7      0.0      0.0      0.0     97.9       35    199.0    199.0       80     0.000     0.000     0.000     0.000      101        0        0        0       12       22       18    13.223       56     38.1    5.034   -9.900     1.70    0.000    0.000       11        9     2097  Maize_short_Chisinau_22May_Optimum_26_NCC.PRM
  Tot(79)       22        5     2098    184.6    521.2   1236.9   422.00      0.0    172.1     12.5     14.1      0.0    136.6       62    237.2    237.0       81     0.000     0.000     0.000     0.000      107        0        0        0       11        8       14    15.919       72     39.7    6.322   -9.900     1.69    0.000    0.000       11        9     2098  Maize_short_Chisinau_22May_Optimum_26_NCC.PRM
  Tot(80)       22        5     2099    166.8    540.3   1375.9   421.00      0.0    164.1      2.7      5.1      0.0    121.1       52    252.6    252.5       83     0.000     0.000     0.000     0.000      107        0        0        0        6       14       16    16.492       70     40.2    6.635   -9.900     1.78    0.000    0.000       11        9     2099  Maize_short_Chisinau_22May_Optimum_26_NCC.PRM
