AquaCrop 7.0 (August 2022) - Output created on (date) : 01-12-2022   at (time) : 18:05:54

    RunNr     Day1   Month1    Year1     Rain      ETo       GD     CO2      Irri   Infilt   Runoff    Drain   Upflow        E     E/Ex       Tr      TrW   Tr/Trx    SaltIn   SaltOut    SaltUp  SaltProf     Cycle   SaltStr  FertStr  WeedStr  TempStr   ExpStr   StoStr  BioMass  Brelative   HI    Y(dry)  Y(fresh)    WPet      Bin     Bout     DayN   MonthN    YearN
                                           mm       mm  degC.day    ppm        mm       mm       mm       mm       mm       mm        %       mm       mm        %    ton/ha    ton/ha    ton/ha    ton/ha      days       %        %        %        %        %        %    ton/ha        %       %    ton/ha   ton/ha    kg/m3   ton/ha   ton/ha
   Tot(1)       22        5     2020    208.8    462.6   1160.1   412.00      0.0    203.5      5.3      0.5      0.0    140.9       75    247.7    246.8       93     0.000     0.000     0.000     0.000      107        0        0        0       14        9        5    18.593       88     40.6    7.547   -9.900     1.94    0.000    0.000       11        9     2020  Maize_short_Cahul_22May_Optimum_26_MPI.PRM
   Tot(2)       22        5     2021    131.0    481.0   1158.0   414.00      0.0    126.0      5.0      0.0      0.0     78.3       37    253.9    253.6       94     0.000     0.000     0.000     0.000      107        0        0        0       14        8        5    19.750       87     40.1    7.916   -9.900     2.38    0.000    0.000       11        9     2021  Maize_short_Cahul_22May_Optimum_26_MPI.PRM
   Tot(3)       22        5     2022    179.1    498.4   1153.7   417.00      0.0    165.8     13.3     19.5      0.0    130.8       63    223.0    223.2       80     0.000     0.000     0.000     0.000      107        0        0        0       15       15       15    15.003       68     40.3    6.050   -9.900     1.71    0.000    0.000       11        9     2022  Maize_short_Cahul_22May_Optimum_26_MPI.PRM
   Tot(4)       22        5     2023     97.3    577.4   1352.6   419.00      0.0     97.3      0.0      0.0      0.0    106.5       34    205.2    205.9       78     0.000     0.000     0.000     0.000      107        0        0        0        6       27       18    13.138       57     40.4    5.302   -9.900     1.70    0.000    0.000       11        9     2023  Maize_short_Cahul_22May_Optimum_26_MPI.PRM
   Tot(5)       22        5     2024    166.3    501.9   1173.9   421.00      0.0    166.0      0.3      0.0      0.0     97.2       42    264.4    263.5       96     0.000     0.000     0.000     0.000      107        0        0        0       12        7        3    20.030       91     40.2    8.052   -9.900     2.23    0.000    0.000       11        9     2024  Maize_short_Cahul_22May_Optimum_26_MPI.PRM
   Tot(6)       22        5     2025    187.7    499.1   1248.0   423.00      0.0    172.5     15.2     33.8      0.0    102.7       40    221.9    223.1       89     0.000     0.000     0.000     0.000      107        0        0        0        9       18        7    17.272       77     40.4    6.975   -9.900     2.15    0.000    0.000       11        9     2025  Maize_short_Cahul_22May_Optimum_26_MPI.PRM
   Tot(7)       22        5     2026    145.8    543.1   1199.5   424.00      0.0    143.9      1.9      0.0      0.0     95.5       40    254.7    252.9       85     0.000     0.000     0.000     0.000      107        0        0        0       12        8       11    17.380       76     39.7    6.894   -9.900     1.97    0.000    0.000       11        9     2026  Maize_short_Cahul_22May_Optimum_26_MPI.PRM
   Tot(8)       22        5     2027    171.2    461.5   1141.8   426.00      0.0    162.0      9.2      9.9      0.0     96.4       49    247.4    247.7       94     0.000     0.000     0.000     0.000      107        0        0        0       14        6        5    19.588       88     40.1    7.848   -9.900     2.28    0.000    0.000       11        9     2027  Maize_short_Cahul_22May_Optimum_26_MPI.PRM
   Tot(9)       22        5     2028    240.0    426.6   1032.7   428.00      0.0    222.3     17.7     22.0      0.0     94.0       54    236.3    236.9      100     0.000     0.000     0.000     0.000      107        0        0        0       18        1        0    20.423       97     40.0    8.170   -9.900     2.47    0.000    0.000       11        9     2028  Maize_short_Cahul_22May_Optimum_26_MPI.PRM
  Tot(10)       22        5     2029    181.9    453.1   1127.6   429.00      0.0    175.2      6.7      9.1      0.0     93.9       53    260.2    259.3       97     0.000     0.000     0.000     0.000      107        0        0        0       16        2        2    20.118       94     40.1    8.063   -9.900     2.28    0.000    0.000       11        9     2029  Maize_short_Cahul_22May_Optimum_26_MPI.PRM
  Tot(11)       22        5     2030    121.7    551.7   1247.5   431.00      0.0    120.1      1.6      5.3      0.0    106.1       39    202.6    204.5       77     0.000     0.000     0.000     0.000       97        0        0        0        8       20       20    12.554       54     33.7    4.232   -9.900     1.38    0.000    0.000       11        9     2030  Maize_short_Cahul_22May_Optimum_26_MPI.PRM
  Tot(12)       22        5     2031    173.1    496.5   1225.1   432.00      0.0    172.2      0.9      0.0      0.0    100.3       41    251.8    251.4      100     0.000     0.000     0.000     0.000      107        0        0        0       11        7        0    20.358       94     40.2    8.181   -9.900     2.32    0.000    0.000       11        9     2031  Maize_short_Cahul_22May_Optimum_26_MPI.PRM
  Tot(13)       22        5     2032    138.3    484.2   1128.2   433.00      0.0    135.6      2.7      1.1      0.0    115.1       57    236.1    235.8       87     0.000     0.000     0.000     0.000      107        0        0        0       14        7       10    17.972       82     40.0    7.193   -9.900     2.05    0.000    0.000       11        9     2032  Maize_short_Cahul_22May_Optimum_26_MPI.PRM
  Tot(14)       22        5     2033    280.2    452.6   1098.3   435.00      0.0    226.6     53.6     37.7      0.0     97.4       47    231.3    231.3      100     0.000     0.000     0.000     0.000      107        0        0        0       17        3        0    20.108       95     40.0    8.050   -9.900     2.45    0.000    0.000       11        9     2033  Maize_short_Cahul_22May_Optimum_26_MPI.PRM
  Tot(15)       22        5     2034    198.8    519.8   1253.0   436.00      0.0    192.5      6.3      0.0      0.0    110.7       44    250.7    250.5       92     0.000     0.000     0.000     0.000      107        0        0        0       11       14        5    18.686       81     40.4    7.553   -9.900     2.09    0.000    0.000       11        9     2034  Maize_short_Cahul_22May_Optimum_26_MPI.PRM
  Tot(16)       22        5     2035    203.9    494.4   1185.1   437.00      0.0    187.7     16.2      0.0      0.0    104.1       47    234.0    234.8       87     0.000     0.000     0.000     0.000      107        0        0        0       14        9        9    17.310       78     39.9    6.907   -9.900     2.04    0.000    0.000       11        9     2035  Maize_short_Cahul_22May_Optimum_26_MPI.PRM
  Tot(17)       22        5     2036    195.4    475.8   1223.9   438.00      0.0    190.2      5.2      5.9      0.0    107.3       49    259.5    257.7       99     0.000     0.000     0.000     0.000      107        0        0        0        8        7        0    21.409       94     40.1    8.595   -9.900     2.34    0.000    0.000       11        9     2036  Maize_short_Cahul_22May_Optimum_26_MPI.PRM
  Tot(18)       22        5     2037    235.7    448.6   1092.6   438.00      0.0    214.4     21.3     17.8      0.0     99.4       48    238.6    238.2      100     0.000     0.000     0.000     0.000      107        0        0        0       17        4        0    20.722       95     40.1    8.310   -9.900     2.46    0.000    0.000       11        9     2037  Maize_short_Cahul_22May_Optimum_26_MPI.PRM
  Tot(19)       22        5     2038    156.9    502.4   1216.0   439.00      0.0    152.3      4.6      0.0      0.0     73.1       31    266.2    268.0       99     0.000     0.000     0.000     0.000      107        0        0        0       12        9        1    20.286       91     40.1    8.128   -9.900     2.40    0.000    0.000       11        9     2038  Maize_short_Cahul_22May_Optimum_26_MPI.PRM
  Tot(20)       22        5     2039    119.6    548.4   1198.9   440.00      0.0    113.2      6.4      0.0      0.0     93.1       33    215.3    215.1       83     0.000     0.000     0.000     0.000      107        0        0        0       12       27       11    13.973       63     40.7    5.682   -9.900     1.84    0.000    0.000       11        9     2039  Maize_short_Cahul_22May_Optimum_26_MPI.PRM
  Tot(21)       22        5     2040    100.2    550.3   1231.7   440.00      0.0     92.9      7.3     19.8      0.0    100.4       34    184.8    185.4       78     0.000     0.000     0.000     0.000       99        0        0        0       11       20       19    12.275       52     36.0    4.420   -9.900     1.56    0.000    0.000       11        9     2040  Maize_short_Cahul_22May_Optimum_26_MPI.PRM
  Tot(22)       22        5     2041    205.4    566.4   1226.1   441.00      0.0    194.0     11.4     13.7      0.0    148.6       52    200.3    200.3       76     0.000     0.000     0.000     0.000      107        0        0        0       11       20       19    11.981       51     32.9    3.947   -9.900     1.13    0.000    0.000       11        9     2041  Maize_short_Cahul_22May_Optimum_26_MPI.PRM
  Tot(23)       22        5     2042    198.1    476.2   1197.1   441.00      0.0    180.6     17.5      0.0      0.0     97.4       43    243.0    240.5       97     0.000     0.000     0.000     0.000      107        0        0        0       11       13        1    20.175       89     40.5    8.178   -9.900     2.40    0.000    0.000       11        9     2042  Maize_short_Cahul_22May_Optimum_26_MPI.PRM
  Tot(24)       22        5     2043    187.0    477.4   1111.8   441.00      0.0    162.1     24.9     28.5      0.0    108.3       52    234.7    236.4       90     0.000     0.000     0.000     0.000      107        0        0        0       16        5       10    18.295       83     40.0    7.313   -9.900     2.13    0.000    0.000       11        9     2043  Maize_short_Cahul_22May_Optimum_26_MPI.PRM
  Tot(25)       22        5     2044    322.1    426.2   1098.4   442.00      0.0    297.6     24.5      3.1      0.0     88.8       43    214.7    215.3      100     0.000     0.000     0.000     0.000      107        0        0        0       18        5        0    19.693       95     40.1    7.896   -9.900     2.60    0.000    0.000       11        9     2044  Maize_short_Cahul_22May_Optimum_26_MPI.PRM
  Tot(26)       22        5     2045    211.6    449.0   1166.5   442.00      0.0    198.8     12.8     20.3      0.0    102.2       54    256.8    254.9      100     0.000     0.000     0.000     0.000      107        0        0        0       12        2        0    21.618       96     40.0    8.656   -9.900     2.41    0.000    0.000       11        9     2045  Maize_short_Cahul_22May_Optimum_26_MPI.PRM
  Tot(27)       22        5     2046    127.7    451.5   1169.6   442.00      0.0    127.2      0.5      0.4      0.0     82.5       43    247.9    249.6       96     0.000     0.000     0.000     0.000      107        0        0        0       11        8        4    20.519       90     40.2    8.241   -9.900     2.49    0.000    0.000       11        9     2046  Maize_short_Cahul_22May_Optimum_26_MPI.PRM
  Tot(28)       22        5     2047    149.5    471.2   1215.4   442.00      0.0    145.4      4.1      0.0      0.0     98.2       51    260.5    260.3       92     0.000     0.000     0.000     0.000      107        0        0        0        9        8        6    20.327       87     40.1    8.147   -9.900     2.27    0.000    0.000       11        9     2047  Maize_short_Cahul_22May_Optimum_26_MPI.PRM
  Tot(29)       22        5     2048    231.7    480.8   1210.4   442.00      0.0    217.3     14.4     10.6      0.0    116.9       54    267.9    266.4      100     0.000     0.000     0.000     0.000      107        0        0        0        9        7        0    21.957       95     40.4    8.863   -9.900     2.30    0.000    0.000       11        9     2048  Maize_short_Cahul_22May_Optimum_26_MPI.PRM
  Tot(30)       22        5     2049    151.0    556.7   1217.1   443.00      0.0    147.4      3.6      8.7      0.0    109.5       41    234.6    235.5       82     0.000     0.000     0.000     0.000      107        0        0        0       10       21       13    15.571       70     40.6    6.325   -9.900     1.84    0.000    0.000       11        9     2049  Maize_short_Cahul_22May_Optimum_26_MPI.PRM
  Tot(31)       22        5     2050    173.4    477.8   1133.8   443.00      0.0    170.2      3.2      0.0      0.0    105.2       50    252.7    252.6       98     0.000     0.000     0.000     0.000      107        0        0        0       16        7        2    19.361       93     40.3    7.801   -9.900     2.18    0.000    0.000       11        9     2050  Maize_short_Cahul_22May_Optimum_26_MPI.PRM
  Tot(32)       22        5     2051    151.2    490.8   1170.8   443.00      0.0    147.7      3.5      1.2      0.0    113.6       52    238.2    237.3       89     0.000     0.000     0.000     0.000      107        0        0        0       11       10        9    18.091       79     40.2    7.264   -9.900     2.06    0.000    0.000       11        9     2051  Maize_short_Cahul_22May_Optimum_26_MPI.PRM
  Tot(33)       22        5     2052    145.4    475.0   1170.0   443.00      0.0    144.6      0.8      0.0      0.0     78.2       31    218.2    218.4      100     0.000     0.000     0.000     0.000      107        0        0        0       13       17        0    19.012       89     40.6    7.717   -9.900     2.60    0.000    0.000       11        9     2052  Maize_short_Cahul_22May_Optimum_26_MPI.PRM
  Tot(34)       22        5     2053    142.9    480.3   1134.2   443.00      0.0    132.9     10.0     26.1      0.0     69.9       36    244.8    245.8       89     0.000     0.000     0.000     0.000      107        0        0        0       14        5        9    18.556       83     39.8    7.392   -9.900     2.35    0.000    0.000       11        9     2053  Maize_short_Cahul_22May_Optimum_26_MPI.PRM
  Tot(35)       22        5     2054    176.5    512.3   1203.7   443.00      0.0    174.1      2.4      0.0      0.0    106.3       46    271.2    271.4       95     0.000     0.000     0.000     0.000      107        0        0        0       10        5        4    20.745       90     40.0    8.308   -9.900     2.20    0.000    0.000       11        9     2054  Maize_short_Cahul_22May_Optimum_26_MPI.PRM
  Tot(36)       22        5     2055    124.4    539.8   1220.6   443.00      0.0    124.3      0.1      0.0      0.0    102.4       39    231.1    231.2       85     0.000     0.000     0.000     0.000      107        0        0        0       14       23       11    15.547       69     40.5    6.293   -9.900     1.89    0.000    0.000       11        9     2055  Maize_short_Cahul_22May_Optimum_26_MPI.PRM
  Tot(37)       22        5     2056    123.9    508.1   1214.7   442.00      0.0    122.2      1.7      5.0      0.0    113.3       52    226.5    227.0       81     0.000     0.000     0.000     0.000      107        0        0        0       10       17       17    16.102       68     39.8    6.411   -9.900     1.89    0.000    0.000       11        9     2056  Maize_short_Cahul_22May_Optimum_26_MPI.PRM
  Tot(38)       22        5     2057    131.7    511.6   1224.3   442.00      0.0    129.8      1.9      0.0      0.0     96.7       43    246.6    245.4       88     0.000     0.000     0.000     0.000      107        0        0        0        9        6        8    18.653       82     39.9    7.436   -9.900     2.17    0.000    0.000       11        9     2057  Maize_short_Cahul_22May_Optimum_26_MPI.PRM
  Tot(39)       22        5     2058    133.1    586.5   1317.6   442.00      0.0    131.1      2.0      0.0      0.0     77.3       23    227.3    228.6       89     0.000     0.000     0.000     0.000      107        0        0        0        8       21        8    15.617       70     40.4    6.305   -9.900     2.07    0.000    0.000       11        9     2058  Maize_short_Cahul_22May_Optimum_26_MPI.PRM
  Tot(40)       22        5     2059    322.9    470.5   1224.4   442.00      0.0    254.1     68.8      3.3      0.0     90.2       40    248.6    247.7      100     0.000     0.000     0.000     0.000      107        0        0        0       11        7        0    20.780       94     40.3    8.375   -9.900     2.47    0.000    0.000       11        9     2059  Maize_short_Cahul_22May_Optimum_26_MPI.PRM
  Tot(41)       22        5     2060    146.8    468.1   1252.0   442.00      0.0    141.4      5.4      7.1      0.0    102.7       55    240.9    240.7       86     0.000     0.000     0.000     0.000      107        0        0        0       10        6        9    18.698       79     40.2    7.508   -9.900     2.18    0.000    0.000       11        9     2060  Maize_short_Cahul_22May_Optimum_26_MPI.PRM
  Tot(42)       22        5     2061    228.3    500.0   1236.2   441.00      0.0    192.7     35.6     41.1      0.0    103.1       44    257.6    258.3       94     0.000     0.000     0.000     0.000      107        0        0        0        8       15        6    19.789       84     40.4    7.987   -9.900     2.21    0.000    0.000       11        9     2061  Maize_short_Cahul_22May_Optimum_26_MPI.PRM
  Tot(43)       22        5     2062    154.0    416.4   1008.4   441.00      0.0    153.6      0.4      0.0      0.0     97.5       56    221.4    221.8      100     0.000     0.000     0.000     0.000      107        0        0        0       19        2        0    19.556       96     40.0    7.831   -9.900     2.46    0.000    0.000       11        9     2062  Maize_short_Cahul_22May_Optimum_26_MPI.PRM
  Tot(44)       22        5     2063    183.8    509.5   1253.2   441.00      0.0    175.6      8.2      0.0      0.0     95.8       40    271.6    269.9       98     0.000     0.000     0.000     0.000      107        0        0        0       10       10        2    20.887       91     40.4    8.431   -9.900     2.29    0.000    0.000       11        9     2063  Maize_short_Cahul_22May_Optimum_26_MPI.PRM
  Tot(45)       22        5     2064    183.5    490.8   1202.7   440.00      0.0    172.2     11.3     13.1      0.0    109.3       50    253.2    252.4       91     0.000     0.000     0.000     0.000      107        0        0        0       11        9        6    20.025       85     40.3    8.063   -9.900     2.22    0.000    0.000       11        9     2064  Maize_short_Cahul_22May_Optimum_26_MPI.PRM
  Tot(46)       22        5     2065    332.2    409.3   1072.6   440.00      0.0    264.5     67.7      0.0      0.0     93.9       47    203.6    204.8      100     0.000     0.000     0.000     0.000      107        0        0        0       19        2        0    20.092       96     40.0    8.038   -9.900     2.70    0.000    0.000       11        9     2065  Maize_short_Cahul_22May_Optimum_26_MPI.PRM
  Tot(47)       22        5     2066    220.5    475.4   1139.5   440.00      0.0    208.6     11.9      0.0      0.0     91.1       44    259.8    260.8       99     0.000     0.000     0.000     0.000      107        0        0        0       12        3        1    21.045       94     40.0    8.420   -9.900     2.40    0.000    0.000       11        9     2066  Maize_short_Cahul_22May_Optimum_26_MPI.PRM
  Tot(48)       22        5     2067    244.4    401.7    983.5   439.00      0.0    217.4     27.0      0.0      0.0     81.7       45    198.6    198.1      100     0.000     0.000     0.000     0.000      107        0        0        0       21        5        0    19.100       96     40.2    7.676   -9.900     2.74    0.000    0.000       11        9     2067  Maize_short_Cahul_22May_Optimum_26_MPI.PRM
  Tot(49)       22        5     2068    207.4    438.2   1053.1   439.00      0.0    190.8     16.6     27.1      0.0    115.3       68    235.6    235.8       96     0.000     0.000     0.000     0.000      107        0        0        0       21       11        3    17.710       91     40.4    7.163   -9.900     2.04    0.000    0.000       11        9     2068  Maize_short_Cahul_22May_Optimum_26_MPI.PRM
  Tot(50)       22        5     2069    217.1    476.5   1244.9   438.00      0.0    210.5      6.6      0.0      0.0    108.3       50    261.2    259.5      100     0.000     0.000     0.000     0.000      107        0        0        0        9        5        0    21.518       94     40.0    8.612   -9.900     2.33    0.000    0.000       11        9     2069  Maize_short_Cahul_22May_Optimum_26_MPI.PRM
  Tot(51)       22        5     2070    123.0    517.5   1227.0   437.00      0.0    122.7      0.3      0.0      0.0     95.5       36    231.6    233.2       91     0.000     0.000     0.000     0.000      107        0        0        0       12       20        9    16.825       77     40.7    6.846   -9.900     2.09    0.000    0.000       11        9     2070  Maize_short_Cahul_22May_Optimum_26_MPI.PRM
  Tot(52)       22        5     2071    189.5    536.9   1282.4   437.00      0.0    178.0     11.5     13.7      0.0    130.6       53    242.5    242.4       83     0.000     0.000     0.000     0.000      107        0        0        0        8       17       12    17.162       73     40.6    6.960   -9.900     1.87    0.000    0.000       11        9     2071  Maize_short_Cahul_22May_Optimum_26_MPI.PRM
  Tot(53)       22        5     2072    158.5    541.3   1311.3   436.00      0.0    158.0      0.5      0.0      0.0    140.8       56    227.1    227.4       81     0.000     0.000     0.000     0.000      107        0        0        0        5       13       15    15.282       65     40.1    6.130   -9.900     1.67    0.000    0.000       11        9     2072  Maize_short_Cahul_22May_Optimum_26_MPI.PRM
  Tot(54)       22        5     2073    200.1    523.8   1214.3   436.00      0.0    149.2     50.9     23.9      0.0     89.5       37    237.1    236.0       86     0.000     0.000     0.000     0.000      107        0        0        0       13       10       13    16.406       73     39.9    6.554   -9.900     2.01    0.000    0.000       11        9     2073  Maize_short_Cahul_22May_Optimum_26_MPI.PRM
  Tot(55)       22        5     2074    178.1    475.5   1202.7   435.00      0.0    174.7      3.4      0.6      0.0     99.2       42    228.8    229.6       96     0.000     0.000     0.000     0.000      107        0        0        0       13       16        2    18.464       88     40.8    7.535   -9.900     2.30    0.000    0.000       11        9     2074  Maize_short_Cahul_22May_Optimum_26_MPI.PRM
  Tot(56)       22        5     2075    211.1    500.0   1234.7   435.00      0.0    202.7      8.4      0.2      0.0     82.4       37    276.6    274.7      100     0.000     0.000     0.000     0.000      107        0        0        0        9        4        0    21.384       95     40.0    8.556   -9.900     2.38    0.000    0.000       11        9     2075  Maize_short_Cahul_22May_Optimum_26_MPI.PRM
  Tot(57)       22        5     2076    194.4    546.3   1301.4   434.00      0.0    176.7     17.7      0.0      0.0     92.2       34    278.7    281.2       98     0.000     0.000     0.000     0.000      107        0        0        0        9       11        2    20.312       89     40.1    8.139   -9.900     2.19    0.000    0.000       11        9     2076  Maize_short_Cahul_22May_Optimum_26_MPI.PRM
  Tot(58)       22        5     2077    134.7    556.9   1285.0   433.00      0.0    132.0      2.7      0.9      0.0    112.3       41    231.9    231.7       82     0.000     0.000     0.000     0.000      107        0        0        0        8       17       14    15.890       68     40.2    6.389   -9.900     1.86    0.000    0.000       11        9     2077  Maize_short_Cahul_22May_Optimum_26_MPI.PRM
  Tot(59)       22        5     2078    124.7    495.0   1229.0   433.00      0.0    123.3      1.4      0.0      0.0     84.6       39    252.8    252.6       90     0.000     0.000     0.000     0.000      107        0        0        0       10       17        8    18.830       81     40.6    7.638   -9.900     2.26    0.000    0.000       11        9     2078  Maize_short_Cahul_22May_Optimum_26_MPI.PRM
  Tot(60)       22        5     2079    191.6    434.5   1083.1   432.00      0.0    183.4      8.2     13.7      0.0    121.9       69    226.1    225.8       91     0.000     0.000     0.000     0.000      107        0        0        0       14        6        6    19.129       86     40.2    7.690   -9.900     2.21    0.000    0.000       11        9     2079  Maize_short_Cahul_22May_Optimum_26_MPI.PRM
  Tot(61)       22        5     2080    158.0    503.4   1183.2   432.00      0.0    154.3      3.7      0.0      0.0     99.3       46    253.4    253.4       88     0.000     0.000     0.000     0.000      107        0        0        0       13        6        8    18.720       83     40.0    7.482   -9.900     2.12    0.000    0.000       11        9     2080  Maize_short_Cahul_22May_Optimum_26_MPI.PRM
  Tot(62)       22        5     2081    236.6    456.8   1195.0   431.00      0.0    215.1     21.5     56.2      0.0    117.9       63    242.8    241.8       92     0.000     0.000     0.000     0.000      107        0        0        0       13       10        6    18.911       84     40.4    7.644   -9.900     2.12    0.000    0.000       11        9     2081  Maize_short_Cahul_22May_Optimum_26_MPI.PRM
  Tot(63)       22        5     2082    135.3    508.2   1202.9   431.00      0.0    124.3     11.0      0.8      0.0     94.3       40    218.1    219.2       82     0.000     0.000     0.000     0.000      107        0        0        0       11       17       11    15.682       68     40.5    6.344   -9.900     2.03    0.000    0.000       11        9     2082  Maize_short_Cahul_22May_Optimum_26_MPI.PRM
  Tot(64)       22        5     2083    118.5    520.2   1211.9   430.00      0.0    118.2      0.3      0.0      0.0     95.4       41    238.8    239.2       86     0.000     0.000     0.000     0.000      107        0        0        0        9       10       13    16.888       75     40.0    6.763   -9.900     2.02    0.000    0.000       11        9     2083  Maize_short_Cahul_22May_Optimum_26_MPI.PRM
  Tot(65)       22        5     2084    251.4    478.0   1183.7   429.00      0.0    233.1     18.3     12.2      0.0    104.5       51    270.0    269.4       98     0.000     0.000     0.000     0.000      107        0        0        0       13        4        1    20.631       93     40.1    8.280   -9.900     2.21    0.000    0.000       11        9     2084  Maize_short_Cahul_22May_Optimum_26_MPI.PRM
  Tot(66)       22        5     2085    157.8    470.2   1113.1   429.00      0.0    156.4      1.4      0.0      0.0     71.2       31    234.1    234.9      100     0.000     0.000     0.000     0.000      107        0        0        0       16        5        0    19.683       94     40.1    7.886   -9.900     2.58    0.000    0.000       11        9     2085  Maize_short_Cahul_22May_Optimum_26_MPI.PRM
  Tot(67)       22        5     2086    227.0    453.6   1195.7   428.00      0.0    202.4     24.6     59.9      0.0    117.6       68    237.3    237.8       87     0.000     0.000     0.000     0.000      107        0        0        0       11        5       12    17.764       79     39.9    7.082   -9.900     2.00    0.000    0.000       11        9     2086  Maize_short_Cahul_22May_Optimum_26_MPI.PRM
  Tot(68)       22        5     2087    207.1    503.3   1226.7   428.00      0.0    200.7      6.4      3.1      0.0    141.0       60    261.3    260.2       95     0.000     0.000     0.000     0.000      107        0        0        0       11        8        4    20.241       90     40.1    8.109   -9.900     2.02    0.000    0.000       11        9     2087  Maize_short_Cahul_22May_Optimum_26_MPI.PRM
  Tot(69)       22        5     2088    133.5    572.8   1367.5   427.00      0.0    122.1     11.4     19.3      0.0    106.1       38    219.7    220.9       78     0.000     0.000     0.000     0.000      106        0        0        0        5       10       19    15.011       64     39.2    5.877   -9.900     1.81    0.000    0.000       11        9     2088  Maize_short_Cahul_22May_Optimum_26_MPI.PRM
  Tot(70)       22        5     2089    243.3    433.3   1064.9   427.00      0.0    232.2     11.1     15.7      0.0    120.2       73    255.5    255.2      100     0.000     0.000     0.000     0.000      107        0        0        0       21        1        0    20.573       98     40.0    8.238   -9.900     2.19    0.000    0.000       11        9     2089  Maize_short_Cahul_22May_Optimum_26_MPI.PRM
  Tot(71)       22        5     2090    174.2    486.5   1150.4   426.00      0.0    173.1      1.1      0.0      0.0     81.7       36    253.5    252.9      100     0.000     0.000     0.000     0.000      107        0        0        0       14        5        0    19.747       94     40.1    7.923   -9.900     2.36    0.000    0.000       11        9     2090  Maize_short_Cahul_22May_Optimum_26_MPI.PRM
  Tot(72)       22        5     2091    134.2    556.3   1363.6   425.00      0.0    133.6      0.6      0.0      0.0    122.8       44    216.4    217.2       79     0.000     0.000     0.000     0.000      107        0        0        0        4       17       16    14.340       60     39.6    5.676   -9.900     1.67    0.000    0.000       11        9     2091  Maize_short_Cahul_22May_Optimum_26_MPI.PRM
  Tot(73)       22        5     2092    226.7    434.2   1065.7   425.00      0.0    217.9      8.8      5.5      0.0    117.8       59    224.4    223.8      100     0.000     0.000     0.000     0.000      107        0        0        0       18       13        0    19.186       93     40.4    7.756   -9.900     2.27    0.000    0.000       11        9     2092  Maize_short_Cahul_22May_Optimum_26_MPI.PRM
  Tot(74)       22        5     2093    279.6    439.1   1107.2   424.00      0.0    262.0     17.6      2.1      0.0     99.3       56    256.2    256.0      100     0.000     0.000     0.000     0.000      107        0        0        0       14        3        0    20.730       96     40.1    8.309   -9.900     2.34    0.000    0.000       11        9     2093  Maize_short_Cahul_22May_Optimum_26_MPI.PRM
  Tot(75)       22        5     2094    128.2    585.2   1370.5   424.00      0.0    125.6      2.6      0.0      0.0     96.3       34    237.1    237.4       78     0.000     0.000     0.000     0.000      107        0        0        0        6       20       16    14.806       62     40.3    5.961   -9.900     1.79    0.000    0.000       11        9     2094  Maize_short_Cahul_22May_Optimum_26_MPI.PRM
  Tot(76)       22        5     2095    119.8    541.1   1248.0   423.00      0.0    117.9      1.9      4.0      0.0    116.1       38    194.5    195.2       83     0.000     0.000     0.000     0.000      107        0        0        0        9       26       16    12.767       57     40.4    5.161   -9.900     1.66    0.000    0.000       11        9     2095  Maize_short_Cahul_22May_Optimum_26_MPI.PRM
  Tot(77)       22        5     2096    104.3    590.1   1352.3   423.00      0.0    103.3      1.0      0.0      0.0     96.8       32    213.9    213.4       76     0.000     0.000     0.000     0.000      107        0        0        0        6       21       17    13.249       55     40.1    5.317   -9.900     1.71    0.000    0.000       11        9     2096  Maize_short_Cahul_22May_Optimum_26_MPI.PRM
  Tot(78)       22        5     2097    201.7    454.5   1167.7   422.00      0.0    191.9      9.8      4.4      0.0    112.2       67    259.5    258.0       92     0.000     0.000     0.000     0.000      107        0        0        0       14        6        5    19.518       86     40.3    7.864   -9.900     2.12    0.000    0.000       11        9     2097  Maize_short_Cahul_22May_Optimum_26_MPI.PRM
  Tot(79)       22        5     2098    165.8    471.2   1154.2   422.00      0.0    162.6      3.2      6.5      0.0    104.2       50    250.4    250.8       98     0.000     0.000     0.000     0.000      107        0        0        0       13        6        2    20.009       93     40.2    8.034   -9.900     2.27    0.000    0.000       11        9     2098  Maize_short_Cahul_22May_Optimum_26_MPI.PRM
  Tot(80)       22        5     2099    171.1    460.3   1032.6   421.00      0.0    169.3      1.8      0.0      0.0    101.2       51    242.2    242.8      100     0.000     0.000     0.000     0.000      107        0        0        0       20        3        0    19.671       96     40.1    7.894   -9.900     2.30    0.000    0.000       11        9     2099  Maize_short_Cahul_22May_Optimum_26_MPI.PRM
