AquaCrop 7.0 (August 2022) - Output created on (date) : 01-12-2022   at (time) : 18:07:56

    RunNr     Day1   Month1    Year1     Rain      ETo       GD     CO2      Irri   Infilt   Runoff    Drain   Upflow        E     E/Ex       Tr      TrW   Tr/Trx    SaltIn   SaltOut    SaltUp  SaltProf     Cycle   SaltStr  FertStr  WeedStr  TempStr   ExpStr   StoStr  BioMass  Brelative   HI    Y(dry)  Y(fresh)    WPet      Bin     Bout     DayN   MonthN    YearN
                                           mm       mm  degC.day    ppm        mm       mm       mm       mm       mm       mm        %       mm       mm        %    ton/ha    ton/ha    ton/ha    ton/ha      days       %        %        %        %        %        %    ton/ha        %       %    ton/ha   ton/ha    kg/m3   ton/ha   ton/ha
   Tot(1)       22        5     2020    250.9    441.3   1107.4   412.00      0.0    225.6     25.3     20.3      0.0    113.6       61    238.9    238.1       98     0.000     0.000     0.000     0.000      107        0        0        0       18        8        1    18.742       94     40.5    7.594   -9.900     2.15    0.000    0.000       11        9     2020  Maize_short_Chisinau_22May_Optimum_26_MPI.PRM
   Tot(2)       22        5     2021    173.6    466.7   1120.8   414.00      0.0    171.4      2.2      0.0      0.0     75.0       37    263.1    261.6      100     0.000     0.000     0.000     0.000      107        0        0        0       16        6        0    21.223       95     40.2    8.535   -9.900     2.52    0.000    0.000       11        9     2021  Maize_short_Chisinau_22May_Optimum_26_MPI.PRM
   Tot(3)       22        5     2022    201.8    453.5   1097.4   417.00      0.0    193.9      7.9     22.7      0.0    120.3       73    247.8    248.3       90     0.000     0.000     0.000     0.000      107        0        0        0       19        9        6    18.049       84     40.5    7.314   -9.900     1.99    0.000    0.000       11        9     2022  Maize_short_Chisinau_22May_Optimum_26_MPI.PRM
   Tot(4)       22        5     2023    137.8    585.5   1345.2   419.00      0.0    137.2      0.6      0.0      0.0    117.7       40    236.1    237.6       83     0.000     0.000     0.000     0.000      107        0        0        0        7       21       15    15.527       69     40.4    6.278   -9.900     1.77    0.000    0.000       11        9     2023  Maize_short_Chisinau_22May_Optimum_26_MPI.PRM
   Tot(5)       22        5     2024    155.8    495.8   1170.2   421.00      0.0    155.0      0.8      0.0      0.0    117.2       54    245.9    245.1       89     0.000     0.000     0.000     0.000      107        0        0        0       14        8        8    18.242       83     40.3    7.355   -9.900     2.03    0.000    0.000       11        9     2024  Maize_short_Chisinau_22May_Optimum_26_MPI.PRM
   Tot(6)       22        5     2025    258.1    486.2   1211.9   423.00      0.0    242.2     15.9     28.3      0.0     88.7       38    258.7    259.6      100     0.000     0.000     0.000     0.000      107        0        0        0       11        7        0    20.881       94     40.1    8.376   -9.900     2.41    0.000    0.000       11        9     2025  Maize_short_Chisinau_22May_Optimum_26_MPI.PRM
   Tot(7)       22        5     2026    123.5    537.6   1194.2   424.00      0.0    123.2      0.3      2.0      0.0     90.9       37    238.8    237.4       85     0.000     0.000     0.000     0.000      107        0        0        0       12       10       12    16.753       75     39.9    6.676   -9.900     2.02    0.000    0.000       11        9     2026  Maize_short_Chisinau_22May_Optimum_26_MPI.PRM
   Tot(8)       22        5     2027    178.2    434.3   1101.2   426.00      0.0    175.8      2.4      2.1      0.0     94.0       53    251.1    251.2      100     0.000     0.000     0.000     0.000      107        0        0        0       15        2        0    20.917       96     40.0    8.376   -9.900     2.43    0.000    0.000       11        9     2027  Maize_short_Chisinau_22May_Optimum_26_MPI.PRM
   Tot(9)       22        5     2028    309.1    406.1    996.7   428.00      0.0    285.6     23.5     50.1      0.0    108.0       61    210.1    210.8      100     0.000     0.000     0.000     0.000      107        0        0        0       22        0        0    19.385       97     40.0    7.754   -9.900     2.44    0.000    0.000       11        9     2028  Maize_short_Chisinau_22May_Optimum_26_MPI.PRM
  Tot(10)       22        5     2029    170.6    433.4   1073.7   429.00      0.0    163.0      7.6     17.2      0.0    102.8       58    235.9    235.5       96     0.000     0.000     0.000     0.000      107        0        0        0       20        2        3    19.246       93     40.1    7.717   -9.900     2.28    0.000    0.000       11        9     2029  Maize_short_Chisinau_22May_Optimum_26_MPI.PRM
  Tot(11)       22        5     2030    169.5    525.9   1214.0   431.00      0.0    165.3      4.2     15.0      0.0    120.2       55    233.4    234.7       81     0.000     0.000     0.000     0.000      105        0        0        0       14        9       19    15.035       67     39.3    5.915   -9.900     1.68    0.000    0.000       11        9     2030  Maize_short_Chisinau_22May_Optimum_26_MPI.PRM
  Tot(12)       22        5     2031    205.0    466.8   1185.4   432.00      0.0    201.6      3.4      6.8      0.0    116.4       52    241.2    241.1      100     0.000     0.000     0.000     0.000      107        0        0        0       14        4        0    20.499       96     40.1    8.215   -9.900     2.30    0.000    0.000       11        9     2031  Maize_short_Chisinau_22May_Optimum_26_MPI.PRM
  Tot(13)       22        5     2032    228.5    476.7   1112.3   433.00      0.0    190.4     38.1     24.0      0.0    115.7       61    255.6    254.6       94     0.000     0.000     0.000     0.000      107        0        0        0       16        3        5    19.539       91     40.1    7.839   -9.900     2.11    0.000    0.000       11        9     2032  Maize_short_Chisinau_22May_Optimum_26_MPI.PRM
  Tot(14)       22        5     2033    187.6    461.9   1105.9   435.00      0.0    183.7      3.9      0.0      0.0     74.1       36    241.4    242.0      100     0.000     0.000     0.000     0.000      107        0        0        0       17        2        0    20.106       95     40.0    8.045   -9.900     2.55    0.000    0.000       11        9     2033  Maize_short_Chisinau_22May_Optimum_26_MPI.PRM
  Tot(15)       22        5     2034    201.7    511.8   1236.7   436.00      0.0    199.1      2.6      0.0      0.0    112.3       47    252.3    251.8       92     0.000     0.000     0.000     0.000      107        0        0        0       13       14        6    18.664       82     40.4    7.546   -9.900     2.07    0.000    0.000       11        9     2034  Maize_short_Chisinau_22May_Optimum_26_MPI.PRM
  Tot(16)       22        5     2035    259.2    499.6   1162.3   437.00      0.0    216.1     43.1      0.0      0.0    107.3       52    253.4    254.4       89     0.000     0.000     0.000     0.000      107        0        0        0       16        6        7    18.218       85     40.0    7.290   -9.900     2.02    0.000    0.000       11        9     2035  Maize_short_Chisinau_22May_Optimum_26_MPI.PRM
  Tot(17)       22        5     2036    226.4    468.5   1186.1   438.00      0.0    219.7      6.7     13.6      0.0    108.5       52    260.4    258.7      100     0.000     0.000     0.000     0.000      107        0        0        0       10        3        0    21.618       96     40.1    8.668   -9.900     2.35    0.000    0.000       11        9     2036  Maize_short_Chisinau_22May_Optimum_26_MPI.PRM
  Tot(18)       22        5     2037    249.3    440.4   1076.9   438.00      0.0    225.4     23.9     16.2      0.0     84.6       41    231.2    231.4      100     0.000     0.000     0.000     0.000      107        0        0        0       18        4        0    20.727       96     40.1    8.313   -9.900     2.63    0.000    0.000       11        9     2037  Maize_short_Chisinau_22May_Optimum_26_MPI.PRM
  Tot(19)       22        5     2038    148.1    455.4   1157.4   439.00      0.0    146.3      1.8      0.0      0.0     61.7       32    255.0    256.4      100     0.000     0.000     0.000     0.000      107        0        0        0       15        5        0    20.862       95     40.1    8.359   -9.900     2.64    0.000    0.000       11        9     2038  Maize_short_Chisinau_22May_Optimum_26_MPI.PRM
  Tot(20)       22        5     2039    165.5    553.0   1178.1   440.00      0.0    155.1     10.4      0.0      0.0     87.0       32    240.7    239.6       89     0.000     0.000     0.000     0.000      107        0        0        0       13       27        6    16.077       73     40.8    6.559   -9.900     2.00    0.000    0.000       11        9     2039  Maize_short_Chisinau_22May_Optimum_26_MPI.PRM
  Tot(21)       22        5     2040    146.9    512.1   1176.5   440.00      0.0    146.8      0.1      0.1      0.0     93.4       42    260.2    260.7       91     0.000     0.000     0.000     0.000      107        0        0        0       14        5        7    19.320       85     40.0    7.729   -9.900     2.19    0.000    0.000       11        9     2040  Maize_short_Chisinau_22May_Optimum_26_MPI.PRM
  Tot(22)       22        5     2041    154.0    584.9   1236.2   441.00      0.0    149.9      4.1      1.1      0.0    127.8       43    207.4    208.2       75     0.000     0.000     0.000     0.000      107        0        0        0       11       22       17    12.513       54     40.0    5.003   -9.900     1.49    0.000    0.000       11        9     2041  Maize_short_Chisinau_22May_Optimum_26_MPI.PRM
  Tot(23)       22        5     2042    280.4    448.1   1144.5   441.00      0.0    252.7     27.7      2.9      0.0    105.4       50    232.3    230.0      100     0.000     0.000     0.000     0.000      107        0        0        0       14        4        0    20.778       96     40.1    8.335   -9.900     2.47    0.000    0.000       11        9     2042  Maize_short_Chisinau_22May_Optimum_26_MPI.PRM
  Tot(24)       22        5     2043    130.6    472.3   1094.2   441.00      0.0    126.9      3.7     13.5      0.0    104.3       52    222.4    224.4       86     0.000     0.000     0.000     0.000      107        0        0        0       18        5       12    17.127       79     39.9    6.835   -9.900     2.09    0.000    0.000       11        9     2043  Maize_short_Chisinau_22May_Optimum_26_MPI.PRM
  Tot(25)       22        5     2044    280.7    420.4   1066.4   442.00      0.0    269.1     11.6      3.3      0.0    105.8       54    211.8    212.0      100     0.000     0.000     0.000     0.000      107        0        0        0       21        4        0    19.355       96     40.1    7.754   -9.900     2.44    0.000    0.000       11        9     2044  Maize_short_Chisinau_22May_Optimum_26_MPI.PRM
  Tot(26)       22        5     2045    307.3    422.6   1132.0   442.00      0.0    275.0     32.3     69.1      0.0     90.9       53    242.2    240.4      100     0.000     0.000     0.000     0.000      107        0        0        0       15        1        0    21.361       97     40.0    8.546   -9.900     2.57    0.000    0.000       11        9     2045  Maize_short_Chisinau_22May_Optimum_26_MPI.PRM
  Tot(27)       22        5     2046    116.2    453.3   1169.2   442.00      0.0    116.2      0.0      0.0      0.0     80.0       39    238.1    239.8       96     0.000     0.000     0.000     0.000      107        0        0        0       11       11        4    20.242       90     40.5    8.201   -9.900     2.58    0.000    0.000       11        9     2046  Maize_short_Chisinau_22May_Optimum_26_MPI.PRM
  Tot(28)       22        5     2047    301.8    439.7   1158.9   442.00      0.0    265.9     35.9     27.9      0.0     95.3       56    268.1    265.8      100     0.000     0.000     0.000     0.000      107        0        0        0       13        1        0    22.128       97     40.0    8.856   -9.900     2.44    0.000    0.000       11        9     2047  Maize_short_Chisinau_22May_Optimum_26_MPI.PRM
  Tot(29)       22        5     2048    287.0    437.2   1151.8   442.00      0.0    247.6     39.4     49.9      0.0     99.8       54    245.9    246.1      100     0.000     0.000     0.000     0.000      107        0        0        0       13        4        0    21.582       97     40.2    8.675   -9.900     2.51    0.000    0.000       11        9     2048  Maize_short_Chisinau_22May_Optimum_26_MPI.PRM
  Tot(30)       22        5     2049    135.6    542.4   1186.9   443.00      0.0    127.8      7.8      9.6      0.0     91.1       37    231.3    233.2       84     0.000     0.000     0.000     0.000      107        0        0        0       12       10       16    15.073       68     39.9    6.017   -9.900     1.87    0.000    0.000       11        9     2049  Maize_short_Chisinau_22May_Optimum_26_MPI.PRM
  Tot(31)       22        5     2050    289.0    449.4   1084.0   443.00      0.0    264.2     24.8     38.6      0.0     97.7       48    230.3    229.6      100     0.000     0.000     0.000     0.000      107        0        0        0       19        2        0    19.161       96     40.1    7.683   -9.900     2.34    0.000    0.000       11        9     2050  Maize_short_Chisinau_22May_Optimum_26_MPI.PRM
  Tot(32)       22        5     2051    168.1    472.0   1119.7   443.00      0.0    162.2      5.9      9.8      0.0    108.1       55    249.0    247.9       92     0.000     0.000     0.000     0.000      107        0        0        0       15        7        7    19.286       86     40.1    7.742   -9.900     2.17    0.000    0.000       11        9     2051  Maize_short_Chisinau_22May_Optimum_26_MPI.PRM
  Tot(33)       22        5     2052    216.5    468.6   1173.7   443.00      0.0    207.4      9.1      0.0      0.0     97.4       39    218.3    218.8      100     0.000     0.000     0.000     0.000      107        0        0        0       14       16        0    19.343       92     40.6    7.848   -9.900     2.49    0.000    0.000       11        9     2052  Maize_short_Chisinau_22May_Optimum_26_MPI.PRM
  Tot(34)       22        5     2053    142.5    468.7   1104.6   443.00      0.0    140.4      2.1     14.5      0.0     73.5       40    252.1    252.7       93     0.000     0.000     0.000     0.000      107        0        0        0       17        3        5    19.465       90     39.9    7.776   -9.900     2.39    0.000    0.000       11        9     2053  Maize_short_Chisinau_22May_Optimum_26_MPI.PRM
  Tot(35)       22        5     2054    179.9    498.5   1159.8   443.00      0.0    163.9     16.0      0.0      0.0     83.3       39    275.2    275.5       98     0.000     0.000     0.000     0.000      107        0        0        0       13        5        2    21.064       93     40.1    8.446   -9.900     2.36    0.000    0.000       11        9     2054  Maize_short_Chisinau_22May_Optimum_26_MPI.PRM
  Tot(36)       22        5     2055    151.0    521.3   1195.8   443.00      0.0    150.5      0.5      0.4      0.0    112.9       49    247.8    248.1       87     0.000     0.000     0.000     0.000      107        0        0        0       16       14       12    17.475       78     40.4    7.057   -9.900     1.96    0.000    0.000       11        9     2055  Maize_short_Chisinau_22May_Optimum_26_MPI.PRM
  Tot(37)       22        5     2056    109.4    520.5   1217.0   442.00      0.0    107.7      1.7      5.3      0.0    105.7       45    215.5    216.2       80     0.000     0.000     0.000     0.000      106        0        0        0       10       18       18    15.044       64     39.9    5.996   -9.900     1.87    0.000    0.000       11        9     2056  Maize_short_Chisinau_22May_Optimum_26_MPI.PRM
  Tot(38)       22        5     2057    135.4    506.9   1220.3   442.00      0.0    134.3      1.1      0.0      0.0     94.1       42    236.4    234.5       86     0.000     0.000     0.000     0.000      107        0        0        0       11        9        8    17.919       80     40.0    7.164   -9.900     2.17    0.000    0.000       11        9     2057  Maize_short_Chisinau_22May_Optimum_26_MPI.PRM
  Tot(39)       22        5     2058    183.8    565.2   1273.5   442.00      0.0    176.9      6.9      0.0      0.0     88.3       28    242.6    244.5       94     0.000     0.000     0.000     0.000      107        0        0        0       11       15        4    17.534       81     40.3    7.071   -9.900     2.14    0.000    0.000       11        9     2058  Maize_short_Chisinau_22May_Optimum_26_MPI.PRM
  Tot(40)       22        5     2059    246.7    479.6   1215.1   442.00      0.0    181.1     65.6      2.5      0.0     67.8       28    231.2    230.8       95     0.000     0.000     0.000     0.000      107        0        0        0       13       13        2    18.731       87     40.6    7.604   -9.900     2.54    0.000    0.000       11        9     2059  Maize_short_Chisinau_22May_Optimum_26_MPI.PRM
  Tot(41)       22        5     2060    103.6    496.1   1245.0   442.00      0.0     99.3      4.3     14.3      0.0     88.1       42    210.7    211.1       79     0.000     0.000     0.000     0.000      107        0        0        0       11       11       18    14.939       64     40.0    5.976   -9.900     2.00    0.000    0.000       11        9     2060  Maize_short_Chisinau_22May_Optimum_26_MPI.PRM
  Tot(42)       22        5     2061    136.1    529.1   1272.4   441.00      0.0    133.4      2.7      0.0      0.0     81.5       32    263.4    263.1       91     0.000     0.000     0.000     0.000      107        0        0        0        8       14        8    19.325       82     40.1    7.756   -9.900     2.25    0.000    0.000       11        9     2061  Maize_short_Chisinau_22May_Optimum_26_MPI.PRM
  Tot(43)       22        5     2062    165.9    403.7    979.8   441.00      0.0    164.3      1.6      0.0      0.0     87.8       54    211.9    212.1      100     0.000     0.000     0.000     0.000      107        0        0        0       22        1        0    19.152       97     40.0    7.664   -9.900     2.56    0.000    0.000       11        9     2062  Maize_short_Chisinau_22May_Optimum_26_MPI.PRM
  Tot(44)       22        5     2063    210.5    531.5   1270.1   441.00      0.0    189.1     21.4      0.4      0.0    116.2       43    247.4    245.3       92     0.000     0.000     0.000     0.000      107        0        0        0       10       24        4    17.994       79     40.8    7.335   -9.900     2.02    0.000    0.000       11        9     2063  Maize_short_Chisinau_22May_Optimum_26_MPI.PRM
  Tot(45)       22        5     2064    123.8    507.7   1223.5   440.00      0.0    122.1      1.7      3.7      0.0     95.5       40    235.6    236.8       85     0.000     0.000     0.000     0.000      107        0        0        0       11       15       11    18.211       77     40.4    7.357   -9.900     2.22    0.000    0.000       11        9     2064  Maize_short_Chisinau_22May_Optimum_26_MPI.PRM
  Tot(46)       22        5     2065    202.5    404.2   1066.0   440.00      0.0    196.0      6.5      0.0      0.0     89.2       47    207.6    207.0      100     0.000     0.000     0.000     0.000      107        0        0        0       21        1        0    20.127       97     40.0    8.051   -9.900     2.71    0.000    0.000       11        9     2065  Maize_short_Chisinau_22May_Optimum_26_MPI.PRM
  Tot(47)       22        5     2066    224.0    462.5   1104.9   440.00      0.0    216.8      7.2      6.4      0.0     93.0       45    248.2    249.8      100     0.000     0.000     0.000     0.000      107        0        0        0       14        2        0    20.920       96     40.0    8.372   -9.900     2.45    0.000    0.000       11        9     2066  Maize_short_Chisinau_22May_Optimum_26_MPI.PRM
  Tot(48)       22        5     2067    254.6    388.1    917.5   439.00      0.0    240.0     14.6     11.8      0.0     94.7       54    185.8    185.1      100     0.000     0.000     0.000     0.000      107        0        0        0       26        1        0    18.366       97     40.0    7.354   -9.900     2.62    0.000    0.000       11        9     2067  Maize_short_Chisinau_22May_Optimum_26_MPI.PRM
  Tot(49)       22        5     2068    247.6    430.1   1029.9   439.00      0.0    201.5     46.1     14.1      0.0     99.8       60    236.5    236.3      100     0.000     0.000     0.000     0.000      107        0        0        0       23        8        0    18.207       96     40.4    7.353   -9.900     2.19    0.000    0.000       11        9     2068  Maize_short_Chisinau_22May_Optimum_26_MPI.PRM
  Tot(50)       22        5     2069    250.8    482.4   1250.0   438.00      0.0    247.9      2.9      0.0      0.0    122.2       55    261.0    259.5      100     0.000     0.000     0.000     0.000      107        0        0        0        9        2        0    21.620       96     40.0    8.655   -9.900     2.26    0.000    0.000       11        9     2069  Maize_short_Chisinau_22May_Optimum_26_MPI.PRM
  Tot(51)       22        5     2070    167.5    502.2   1197.3   437.00      0.0    166.0      1.5      0.0      0.0     96.1       38    248.8    250.1       99     0.000     0.000     0.000     0.000      107        0        0        0       14       16        0    18.860       89     40.7    7.677   -9.900     2.23    0.000    0.000       11        9     2070  Maize_short_Chisinau_22May_Optimum_26_MPI.PRM
  Tot(52)       22        5     2071    159.9    526.4   1280.1   437.00      0.0    159.7      0.2      0.0      0.0    126.2       53    247.3    247.5       85     0.000     0.000     0.000     0.000      107        0        0        0        8       10       11    17.915       78     40.2    7.210   -9.900     1.93    0.000    0.000       11        9     2071  Maize_short_Chisinau_22May_Optimum_26_MPI.PRM
  Tot(53)       22        5     2072    230.9    555.1   1318.3   436.00      0.0    212.3     18.6     19.8      0.0    150.8       60    231.6    231.4       80     0.000     0.000     0.000     0.000      107        0        0        0        6       13       13    15.434       66     40.1    6.193   -9.900     1.62    0.000    0.000       11        9     2072  Maize_short_Chisinau_22May_Optimum_26_MPI.PRM
  Tot(54)       22        5     2073    102.1    551.6   1248.8   436.00      0.0    101.7      0.4      0.0      0.0     90.1       34    222.6    223.6       80     0.000     0.000     0.000     0.000      104        0        0        0       12       15       18    14.169       62     39.9    5.655   -9.900     1.81    0.000    0.000       11        9     2073  Maize_short_Chisinau_22May_Optimum_26_MPI.PRM
  Tot(55)       22        5     2074    177.8    501.8   1202.2   435.00      0.0    173.7      4.1      0.0      0.0     90.4       34    232.6    231.8       97     0.000     0.000     0.000     0.000      107        0        0        0       16       22        1    17.565       86     40.8    7.169   -9.900     2.22    0.000    0.000       11        9     2074  Maize_short_Chisinau_22May_Optimum_26_MPI.PRM
  Tot(56)       22        5     2075    294.5    472.1   1191.7   435.00      0.0    259.7     34.8     30.4      0.0    100.5       47    253.2    251.4      100     0.000     0.000     0.000     0.000      107        0        0        0       12        2        0    20.976       96     40.0    8.390   -9.900     2.37    0.000    0.000       11        9     2075  Maize_short_Chisinau_22May_Optimum_26_MPI.PRM
  Tot(57)       22        5     2076    122.0    553.6   1297.8   434.00      0.0    121.2      0.8      0.0      0.0     87.1       31    241.3    243.6       86     0.000     0.000     0.000     0.000      107        0        0        0        9       14        9    17.374       77     40.3    7.002   -9.900     2.13    0.000    0.000       11        9     2076  Maize_short_Chisinau_22May_Optimum_26_MPI.PRM
  Tot(58)       22        5     2077    152.6    568.0   1286.0   433.00      0.0    151.7      0.9      0.0      0.0    100.3       37    253.8    253.0       84     0.000     0.000     0.000     0.000      107        0        0        0        9       14       10    17.354       75     40.3    7.001   -9.900     1.98    0.000    0.000       11        9     2077  Maize_short_Chisinau_22May_Optimum_26_MPI.PRM
  Tot(59)       22        5     2078    194.2    469.0   1189.8   433.00      0.0    191.7      2.5      0.0      0.0     84.0       42    270.0    269.5      100     0.000     0.000     0.000     0.000      107        0        0        0       13        7        0    21.394       95     40.2    8.605   -9.900     2.43    0.000    0.000       11        9     2078  Maize_short_Chisinau_22May_Optimum_26_MPI.PRM
  Tot(60)       22        5     2079    277.2    414.9   1037.9   432.00      0.0    248.8     28.4     37.7      0.0    124.0       73    230.2    230.2      100     0.000     0.000     0.000     0.000      107        0        0        0       17        2        0    20.655       97     40.1    8.292   -9.900     2.34    0.000    0.000       11        9     2079  Maize_short_Chisinau_22May_Optimum_26_MPI.PRM
  Tot(61)       22        5     2080    151.1    490.5   1154.5   432.00      0.0    149.5      1.6      2.8      0.0    104.3       51    247.0    247.3       88     0.000     0.000     0.000     0.000      107        0        0        0       15        6        8    18.496       82     39.9    7.384   -9.900     2.10    0.000    0.000       11        9     2080  Maize_short_Chisinau_22May_Optimum_26_MPI.PRM
  Tot(62)       22        5     2081    212.9    471.6   1204.0   431.00      0.0    192.0     20.9     31.7      0.0    111.4       60    258.4    258.2       91     0.000     0.000     0.000     0.000      107        0        0        0       13        4        8    19.177       86     40.1    7.688   -9.900     2.08    0.000    0.000       11        9     2081  Maize_short_Chisinau_22May_Optimum_26_MPI.PRM
  Tot(63)       22        5     2082     90.2    516.2   1208.3   431.00      0.0     89.7      0.5      3.4      0.0     96.6       41    206.2    206.9       76     0.000     0.000     0.000     0.000      107        0        0        0       11       14       19    14.317       62     39.9    5.715   -9.900     1.89    0.000    0.000       11        9     2082  Maize_short_Chisinau_22May_Optimum_26_MPI.PRM
  Tot(64)       22        5     2083    146.7    524.4   1196.6   430.00      0.0    146.6      0.1      0.0      0.0    106.5       47    251.3    250.8       87     0.000     0.000     0.000     0.000      107        0        0        0       10        7       11    17.511       78     40.0    6.997   -9.900     1.96    0.000    0.000       11        9     2083  Maize_short_Chisinau_22May_Optimum_26_MPI.PRM
  Tot(65)       22        5     2084    322.6    442.4   1118.1   429.00      0.0    283.9     38.7     37.0      0.0    112.1       61    254.9    254.8      100     0.000     0.000     0.000     0.000      107        0        0        0       17        3        0    20.730       97     40.1    8.317   -9.900     2.27    0.000    0.000       11        9     2084  Maize_short_Chisinau_22May_Optimum_26_MPI.PRM
  Tot(66)       22        5     2085    151.3    477.1   1105.2   429.00      0.0    149.4      1.9      0.0      0.0     66.4       28    233.8    234.3      100     0.000     0.000     0.000     0.000      107        0        0        0       17        5        0    19.441       94     40.1    7.800   -9.900     2.60    0.000    0.000       11        9     2085  Maize_short_Chisinau_22May_Optimum_26_MPI.PRM
  Tot(67)       22        5     2086    140.6    476.4   1193.5   428.00      0.0    139.3      1.3      0.9      0.0    111.4       60    235.6    236.1       84     0.000     0.000     0.000     0.000      107        0        0        0       12        4       13    16.872       76     39.7    6.706   -9.900     1.93    0.000    0.000       11        9     2086  Maize_short_Chisinau_22May_Optimum_26_MPI.PRM
  Tot(68)       22        5     2087    180.9    482.4   1192.1   428.00      0.0    176.2      4.7     10.7      0.0    132.4       59    238.3    237.4       93     0.000     0.000     0.000     0.000      107        0        0        0       13        8        6    19.410       88     40.2    7.802   -9.900     2.10    0.000    0.000       11        9     2087  Maize_short_Chisinau_22May_Optimum_26_MPI.PRM
  Tot(69)       22        5     2088    146.3    551.3   1338.2   427.00      0.0    138.6      7.7     11.5      0.0    106.1       43    244.3    245.0       81     0.000     0.000     0.000     0.000      107        0        0        0        8        4       15    17.256       75     39.3    6.780   -9.900     1.93    0.000    0.000       11        9     2088  Maize_short_Chisinau_22May_Optimum_26_MPI.PRM
  Tot(70)       22        5     2089    277.6    435.8   1049.3   427.00      0.0    262.7     14.9     25.1      0.0    119.8       69    248.3    248.3      100     0.000     0.000     0.000     0.000      107        0        0        0       22        1        0    20.295       97     40.1    8.130   -9.900     2.21    0.000    0.000       11        9     2089  Maize_short_Chisinau_22May_Optimum_26_MPI.PRM
  Tot(71)       22        5     2090    184.4    483.7   1123.2   426.00      0.0    182.1      2.3      0.0      0.0     79.8       36    247.0    245.8      100     0.000     0.000     0.000     0.000      107        0        0        0       16        5        0    19.482       95     40.2    7.827   -9.900     2.40    0.000    0.000       11        9     2090  Maize_short_Chisinau_22May_Optimum_26_MPI.PRM
  Tot(72)       22        5     2091    232.8    542.4   1336.4   425.00      0.0    220.6     12.2     19.5      0.0    128.6       53    251.2    252.4       83     0.000     0.000     0.000     0.000      107        0        0        0        6        9       12    17.587       74     39.5    6.950   -9.900     1.83    0.000    0.000       11        9     2091  Maize_short_Chisinau_22May_Optimum_26_MPI.PRM
  Tot(73)       22        5     2092    221.7    427.8   1034.6   425.00      0.0    215.4      6.3      4.0      0.0    114.6       59    218.5    218.2      100     0.000     0.000     0.000     0.000      107        0        0        0       21        9        0    18.855       95     40.4    7.616   -9.900     2.29    0.000    0.000       11        9     2092  Maize_short_Chisinau_22May_Optimum_26_MPI.PRM
  Tot(74)       22        5     2093    247.5    432.5   1092.6   424.00      0.0    232.3     15.2      0.0      0.0    105.4       59    246.3    246.6      100     0.000     0.000     0.000     0.000      107        0        0        0       16        5        0    20.409       96     40.2    8.210   -9.900     2.33    0.000    0.000       11        9     2093  Maize_short_Chisinau_22May_Optimum_26_MPI.PRM
  Tot(75)       22        5     2094    119.9    612.6   1384.6   424.00      0.0    117.0      2.9      0.0      0.0     93.1       33    241.5    241.3       74     0.000     0.000     0.000     0.000      107        0        0        0        6       17       20    14.249       60     39.8    5.667   -9.900     1.69    0.000    0.000       11        9     2094  Maize_short_Chisinau_22May_Optimum_26_MPI.PRM
  Tot(76)       22        5     2095    155.6    534.5   1252.1   423.00      0.0    152.9      2.7      6.4      0.0    101.3       36    230.4    229.9       88     0.000     0.000     0.000     0.000      107        0        0        0       10       23        9    16.074       73     40.6    6.532   -9.900     1.97    0.000    0.000       11        9     2095  Maize_short_Chisinau_22May_Optimum_26_MPI.PRM
  Tot(77)       22        5     2096    112.6    573.3   1331.6   423.00      0.0    112.3      0.3      0.0      0.0    104.1       36    212.9    213.3       76     0.000     0.000     0.000     0.000      107        0        0        0        7       22       17    13.443       56     40.3    5.416   -9.900     1.71    0.000    0.000       11        9     2096  Maize_short_Chisinau_22May_Optimum_26_MPI.PRM
  Tot(78)       22        5     2097    209.9    451.3   1158.0   422.00      0.0    204.6      5.3     12.1      0.0    119.6       70    270.2    269.1       97     0.000     0.000     0.000     0.000      107        0        0        0       15        4        2    21.119       94     40.2    8.492   -9.900     2.18    0.000    0.000       11        9     2097  Maize_short_Chisinau_22May_Optimum_26_MPI.PRM
  Tot(79)       22        5     2098    216.0    474.8   1140.3   422.00      0.0    210.1      5.9      4.9      0.0    106.2       51    254.1    252.9      100     0.000     0.000     0.000     0.000      107        0        0        0       15        3        0    20.372       96     40.1    8.165   -9.900     2.27    0.000    0.000       11        9     2098  Maize_short_Chisinau_22May_Optimum_26_MPI.PRM
  Tot(80)       22        5     2099    221.8    412.9    972.5   421.00      0.0    212.5      9.3     20.8      0.0    102.3       59    215.1    217.0      100     0.000     0.000     0.000     0.000      107        0        0        0       26        1        0    18.941       97     40.1    7.586   -9.900     2.39    0.000    0.000       11        9     2099  Maize_short_Chisinau_22May_Optimum_26_MPI.PRM
