AquaCrop 7.0 (August 2022) - Output created on (date) : 01-12-2022   at (time) : 18:07:16

    RunNr     Day1   Month1    Year1     Rain      ETo       GD     CO2      Irri   Infilt   Runoff    Drain   Upflow        E     E/Ex       Tr      TrW   Tr/Trx    SaltIn   SaltOut    SaltUp  SaltProf     Cycle   SaltStr  FertStr  WeedStr  TempStr   ExpStr   StoStr  BioMass  Brelative   HI    Y(dry)  Y(fresh)    WPet      Bin     Bout     DayN   MonthN    YearN
                                           mm       mm  degC.day    ppm        mm       mm       mm       mm       mm       mm        %       mm       mm        %    ton/ha    ton/ha    ton/ha    ton/ha      days       %        %        %        %        %        %    ton/ha        %       %    ton/ha   ton/ha    kg/m3   ton/ha   ton/ha
   Tot(1)       22        5     2020    140.7    640.6   1505.9   412.00      0.0    139.1      1.6      0.0      0.0    119.5       31    169.3    169.6       72     0.000     0.000     0.000     0.000       85        0        0        0       10       31       21     8.388       35     21.8    1.827   -9.900     0.69    0.000    0.000       11        9     2020  Maize_short_Chisinau_22May_Optimum_26_MOHC.PRM
   Tot(2)       22        5     2021     70.4    676.7   1574.9   414.00      0.0     70.3      0.1      0.0      0.0     82.6       20    195.5    195.3       73     0.000     0.000     0.000     0.000      107        0        0        0        2       35       22    10.108       42     40.1    4.058   -9.900     1.46    0.000    0.000       11        9     2021  Maize_short_Chisinau_22May_Optimum_26_MOHC.PRM
   Tot(3)       22        5     2022     56.9    706.9   1647.1   417.00      0.0     56.9      0.0      0.0      0.0     75.6       17    187.9    188.2       73     0.000     0.000     0.000     0.000       91        0        0        0        4       30       20     9.623       39     27.8    2.679   -9.900     1.03    0.000    0.000       11        9     2022  Maize_short_Chisinau_22May_Optimum_26_MOHC.PRM
   Tot(4)       22        5     2023     72.3    723.9   1641.6   419.00      0.0     72.1      0.2      0.0      0.0     95.3       20    172.8    172.8       72     0.000     0.000     0.000     0.000       87        0        0        0        1       32       20     8.580       36     24.1    2.070   -9.900     0.81    0.000    0.000       11        9     2023  Maize_short_Chisinau_22May_Optimum_26_MOHC.PRM
   Tot(5)       22        5     2024    134.9    628.4   1576.8   421.00      0.0    132.0      2.9      1.2      0.0    111.7       39    245.3    245.3       73     0.000     0.000     0.000     0.000      107        0        0        0        2       10       23    14.762       60     38.5    5.677   -9.900     1.59    0.000    0.000       11        9     2024  Maize_short_Chisinau_22May_Optimum_26_MOHC.PRM
   Tot(6)       22        5     2025    101.1    623.0   1451.9   423.00      0.0     97.3      3.8      6.6      0.0     96.0       24    167.5    167.3       74     0.000     0.000     0.000     0.000      107        0        0        0        8       35       14     8.405       36     31.7    2.663   -9.900     1.01    0.000    0.000       11        9     2025  Maize_short_Chisinau_22May_Optimum_26_MOHC.PRM
   Tot(7)       22        5     2026    103.2    728.4   1653.1   424.00      0.0     96.7      6.5      7.0      0.0     82.3       21    221.7    221.9       72     0.000     0.000     0.000     0.000       94        0        0        0        2       21       21    11.114       45     30.3    3.366   -9.900     1.11    0.000    0.000       11        9     2026  Maize_short_Chisinau_22May_Optimum_26_MOHC.PRM
   Tot(8)       22        5     2027     50.3    726.2   1651.2   426.00      0.0     50.3      0.0      0.0      0.0     83.3       17    158.7    158.7       73     0.000     0.000     0.000     0.000       86        0        0        0        1       36       20     7.265       30     18.4    1.338   -9.900     0.56    0.000    0.000       11        9     2027  Maize_short_Chisinau_22May_Optimum_26_MOHC.PRM
   Tot(9)       22        5     2028    152.7    694.7   1584.0   428.00      0.0    142.8      9.9      8.3      0.0    135.7       28    159.2    159.2       74     0.000     0.000     0.000     0.000       85        0        0        0        4       38       19     6.779       28     21.1    1.428   -9.900     0.53    0.000    0.000       11        9     2028  Maize_short_Chisinau_22May_Optimum_26_MOHC.PRM
  Tot(10)       22        5     2029     73.7    646.8   1569.2   429.00      0.0     71.8      1.9      9.4      0.0     83.2       24    183.4    183.4       71     0.000     0.000     0.000     0.000       88        0        0        0        3       26       21     9.682       39     24.6    2.385   -9.900     0.92    0.000    0.000       11        9     2029  Maize_short_Chisinau_22May_Optimum_26_MOHC.PRM
  Tot(11)       22        5     2030     78.9    772.1   1747.1   431.00      0.0     78.4      0.5      0.0      0.0    102.7       20    171.5    171.5       70     0.000     0.000     0.000     0.000       84        0        0        0        0       33       22     7.554       31     20.6    1.559   -9.900     0.58    0.000    0.000       11        9     2030  Maize_short_Chisinau_22May_Optimum_26_MOHC.PRM
  Tot(12)       22        5     2031    101.8    669.6   1614.0   432.00      0.0    101.7      0.1      0.0      0.0    103.1       28    204.6    204.6       73     0.000     0.000     0.000     0.000       93        0        0        0        3       23       21    11.010       45     29.6    3.263   -9.900     1.07    0.000    0.000       11        9     2031  Maize_short_Chisinau_22May_Optimum_26_MOHC.PRM
  Tot(13)       22        5     2032     45.7    762.2   1730.9   433.00      0.0     45.5      0.2      0.0      0.0     76.8       14    158.0    158.0       73     0.000     0.000     0.000     0.000       84        0        0        0        1       37       20     6.866       28     20.9    1.438   -9.900     0.62    0.000    0.000       11        9     2032  Maize_short_Chisinau_22May_Optimum_26_MOHC.PRM
  Tot(14)       22        5     2033    128.3    719.3   1663.9   435.00      0.0    124.0      4.3      2.6      0.0    137.4       31    176.1    176.1       70     0.000     0.000     0.000     0.000       84        0        0        0        1       30       22     8.219       34     20.6    1.695   -9.900     0.55    0.000    0.000       11        9     2033  Maize_short_Chisinau_22May_Optimum_26_MOHC.PRM
  Tot(15)       22        5     2034    197.5    568.3   1472.4   436.00      0.0    187.2     10.3     21.6      0.0    129.8       55    239.1    239.0       74     0.000     0.000     0.000     0.000      107        0        0        0        5        7       18    15.619       64     38.7    6.038   -9.900     1.64    0.000    0.000       11        9     2034  Maize_short_Chisinau_22May_Optimum_26_MOHC.PRM
  Tot(16)       22        5     2035     60.9    674.8   1595.9   437.00      0.0     60.2      0.7      3.3      0.0     83.6       20    174.0    174.0       73     0.000     0.000     0.000     0.000       88        0        0        0        1       31       20     8.847       36     24.8    2.194   -9.900     0.86    0.000    0.000       11        9     2035  Maize_short_Chisinau_22May_Optimum_26_MOHC.PRM
  Tot(17)       22        5     2036    128.9    694.4   1558.1   438.00      0.0    126.5      2.4      2.1      0.0    131.8       33    194.1    194.1       71     0.000     0.000     0.000     0.000       87        0        0        0        3       28       21     9.277       39     23.9    2.221   -9.900     0.71    0.000    0.000       11        9     2036  Maize_short_Chisinau_22May_Optimum_26_MOHC.PRM
  Tot(18)       22        5     2037     83.2    714.7   1646.2   438.00      0.0     79.3      3.9      4.8      0.0    101.2       22    165.6    165.6       73     0.000     0.000     0.000     0.000       84        0        0        0        2       35       20     7.603       31     20.9    1.588   -9.900     0.60    0.000    0.000       11        9     2037  Maize_short_Chisinau_22May_Optimum_26_MOHC.PRM
  Tot(19)       22        5     2038    102.6    584.2   1472.7   439.00      0.0    102.0      0.6      0.1      0.0    120.8       41    192.5    192.5       72     0.000     0.000     0.000     0.000       93        0        0        0        4       21       21    11.432       47     29.6    3.383   -9.900     1.12    0.000    0.000       11        9     2038  Maize_short_Chisinau_22May_Optimum_26_MOHC.PRM
  Tot(20)       22        5     2039     77.9    725.9   1654.8   440.00      0.0     76.6      1.3      1.0      0.0    100.9       21    163.8    163.8       72     0.000     0.000     0.000     0.000       83        0        0        0        2       34       20     7.619       31     17.3    1.321   -9.900     0.54    0.000    0.000       11        9     2039  Maize_short_Chisinau_22May_Optimum_26_MOHC.PRM
  Tot(21)       22        5     2040     19.3    699.8   1567.4   440.00      0.0     19.3      0.0      0.0      0.0     54.1       11    162.1    162.1       75     0.000     0.000     0.000     0.000       88        0        0        0        2       35       19     8.178       33     25.0    2.047   -9.900     0.97    0.000    0.000       11        9     2040  Maize_short_Chisinau_22May_Optimum_26_MOHC.PRM
  Tot(22)       22        5     2041     52.5    726.5   1601.2   441.00      0.0     52.5      0.0      0.0      0.0     78.8       17    169.5    169.5       73     0.000     0.000     0.000     0.000       85        0        0        0        4       33       20     8.222       33     21.8    1.795   -9.900     0.73    0.000    0.000       11        9     2041  Maize_short_Chisinau_22May_Optimum_26_MOHC.PRM
  Tot(23)       22        5     2042    115.1    607.1   1519.1   441.00      0.0    114.8      0.3      0.0      0.0     90.3       32    244.3    244.3       76     0.000     0.000     0.000     0.000      106        0        0        0        5       15       22    14.430       59     38.9    5.607   -9.900     1.68    0.000    0.000       11        9     2042  Maize_short_Chisinau_22May_Optimum_26_MOHC.PRM
  Tot(24)       22        5     2043     94.6    708.1   1642.8   441.00      0.0     94.3      0.3      0.0      0.0    116.4       28    178.7    178.7       70     0.000     0.000     0.000     0.000       85        0        0        0        1       30       22     8.719       35     22.0    1.919   -9.900     0.66    0.000    0.000       11        9     2043  Maize_short_Chisinau_22May_Optimum_26_MOHC.PRM
  Tot(25)       22        5     2044    194.3    606.0   1527.5   442.00      0.0    192.3      2.0      2.2      0.0    161.0       56    237.4    237.4       76     0.000     0.000     0.000     0.000      100        0        0        0        1       13       20    14.053       59     36.2    5.092   -9.900     1.29    0.000    0.000       11        9     2044  Maize_short_Chisinau_22May_Optimum_26_MOHC.PRM
  Tot(26)       22        5     2045    156.0    630.0   1488.8   442.00      0.0    137.7     18.3     36.4      0.0    110.2       33    190.2    190.2       70     0.000     0.000     0.000     0.000       90        0        0        0        2       24       21    10.282       43     26.5    2.723   -9.900     0.95    0.000    0.000       11        9     2045  Maize_short_Chisinau_22May_Optimum_26_MOHC.PRM
  Tot(27)       22        5     2046     52.3    805.4   1841.8   442.00      0.0     52.0      0.3      0.0      0.0     80.2       14    161.6    161.6       74     0.000     0.000     0.000     0.000       84        0        0        0        0       37       20     6.901       28     13.4    0.925   -9.900     0.40    0.000    0.000       11        9     2046  Maize_short_Chisinau_22May_Optimum_26_MOHC.PRM
  Tot(28)       22        5     2047    103.0    686.9   1693.9   442.00      0.0     95.6      7.4     18.3      0.0    103.4       24    169.3    169.3       72     0.000     0.000     0.000     0.000       86        0        0        0        1       33       20     8.473       34     22.8    1.933   -9.900     0.72    0.000    0.000       11        9     2047  Maize_short_Chisinau_22May_Optimum_26_MOHC.PRM
  Tot(29)       22        5     2048    149.1    600.2   1467.2   442.00      0.0    140.4      8.7     17.2      0.0     95.5       32    241.3    241.3       80     0.000     0.000     0.000     0.000      103        0        0        0        6       21       18    13.842       58     40.0    5.538   -9.900     1.65    0.000    0.000       11        9     2048  Maize_short_Chisinau_22May_Optimum_26_MOHC.PRM
  Tot(30)       22        5     2049     87.5    616.2   1578.7   443.00      0.0     87.4      0.1      0.0      0.0     92.3       27    206.2    205.7       76     0.000     0.000     0.000     0.000      107        0        0        0        3       30       19    12.507       51     40.4    5.048   -9.900     1.69    0.000    0.000       11        9     2049  Maize_short_Chisinau_22May_Optimum_26_MOHC.PRM
  Tot(31)       22        5     2050     92.8    652.6   1626.2   443.00      0.0     91.1      1.7      0.0      0.0    104.7       26    176.7    177.2       75     0.000     0.000     0.000     0.000       91        0        0        0        3       32       19     9.118       37     28.1    2.560   -9.900     0.97    0.000    0.000       11        9     2050  Maize_short_Chisinau_22May_Optimum_26_MOHC.PRM
  Tot(32)       22        5     2051     83.8    691.1   1628.4   443.00      0.0     82.2      1.6      6.2      0.0    100.3       24    172.9    172.9       73     0.000     0.000     0.000     0.000       86        0        0        0        3       31       21     8.674       35     22.8    1.981   -9.900     0.73    0.000    0.000       11        9     2051  Maize_short_Chisinau_22May_Optimum_26_MOHC.PRM
  Tot(33)       22        5     2052    116.3    637.7   1641.5   443.00      0.0    116.2      0.1      0.0      0.0    108.5       33    224.1    224.1       75     0.000     0.000     0.000     0.000      100        0        0        0        0       20       22    12.614       51     36.4    4.597   -9.900     1.40    0.000    0.000       11        9     2052  Maize_short_Chisinau_22May_Optimum_26_MOHC.PRM
  Tot(34)       22        5     2053     95.9    686.6   1657.1   443.00      0.0     95.9      0.0      0.0      0.0    113.0       26    176.3    176.3       74     0.000     0.000     0.000     0.000       89        0        0        0        0       32       20     8.896       36     25.9    2.305   -9.900     0.81    0.000    0.000       11        9     2053  Maize_short_Chisinau_22May_Optimum_26_MOHC.PRM
  Tot(35)       22        5     2054    171.1    619.3   1501.8   443.00      0.0    156.3     14.8      9.7      0.0    115.0       31    182.1    182.1       75     0.000     0.000     0.000     0.000       91        0        0        0        2       29       19    10.114       42     28.3    2.858   -9.900     1.00    0.000    0.000       11        9     2054  Maize_short_Chisinau_22May_Optimum_26_MOHC.PRM
  Tot(36)       22        5     2055    134.2    661.9   1612.2   443.00      0.0    123.6     10.6     21.7      0.0     98.6       23    186.4    186.3       80     0.000     0.000     0.000     0.000      107        0        0        0        1       34       15    10.312       42     40.4    4.168   -9.900     1.46    0.000    0.000       11        9     2055  Maize_short_Chisinau_22May_Optimum_26_MOHC.PRM
  Tot(37)       22        5     2056    159.0    663.2   1608.1   442.00      0.0    153.8      5.2      7.5      0.0    146.3       43    211.9    212.0       72     0.000     0.000     0.000     0.000       93        0        0        0        1       21       21    11.561       47     29.7    3.428   -9.900     0.96    0.000    0.000       11        9     2056  Maize_short_Chisinau_22May_Optimum_26_MOHC.PRM
  Tot(38)       22        5     2057    137.4    676.8   1653.8   442.00      0.0    136.2      1.2      1.0      0.0    134.6       38    210.4    210.4       73     0.000     0.000     0.000     0.000       91        0        0        0        1       21       21    10.998       44     27.9    3.067   -9.900     0.89    0.000    0.000       11        9     2057  Maize_short_Chisinau_22May_Optimum_26_MOHC.PRM
  Tot(39)       22        5     2058     69.1    670.3   1604.6   442.00      0.0     68.9      0.2      0.0      0.0     88.2       22    188.7    188.7       75     0.000     0.000     0.000     0.000       92        0        0        0        1       29       20    10.216       42     28.8    2.943   -9.900     1.07    0.000    0.000       11        9     2058  Maize_short_Chisinau_22May_Optimum_26_MOHC.PRM
  Tot(40)       22        5     2059     74.5    650.2   1577.7   442.00      0.0     70.9      3.6     13.4      0.0     71.6       19    201.5    201.5       72     0.000     0.000     0.000     0.000      107        0        0        0        5       31       23    11.301       46     36.4    4.116   -9.900     1.51    0.000    0.000       11        9     2059  Maize_short_Chisinau_22May_Optimum_26_MOHC.PRM
  Tot(41)       22        5     2060     41.9    634.0   1555.3   442.00      0.0     41.1      0.8      3.9      0.0     64.5       17    172.7    172.7       73     0.000     0.000     0.000     0.000       90        0        0        0        2       30       20     9.669       39     26.9    2.596   -9.900     1.13    0.000    0.000       11        9     2060  Maize_short_Chisinau_22May_Optimum_26_MOHC.PRM
  Tot(42)       22        5     2061     59.7    644.7   1618.2   441.00      0.0     54.8      4.9     11.2      0.0     73.7       19    167.3    167.3       73     0.000     0.000     0.000     0.000       87        0        0        0        1       31       20     8.745       35     23.9    2.093   -9.900     0.88    0.000    0.000       11        9     2061  Maize_short_Chisinau_22May_Optimum_26_MOHC.PRM
  Tot(43)       22        5     2062     89.2    655.7   1596.7   441.00      0.0     89.2      0.0      0.0      0.0    106.2       26    187.2    186.8       75     0.000     0.000     0.000     0.000      107        0        0        0        3       32       21    10.452       42     40.3    4.213   -9.900     1.44    0.000    0.000       11        9     2062  Maize_short_Chisinau_22May_Optimum_26_MOHC.PRM
  Tot(44)       22        5     2063    133.9    625.7   1588.5   441.00      0.0    127.9      6.0     11.6      0.0    124.2       35    178.3    178.8       71     0.000     0.000     0.000     0.000       88        0        0        0        2       28       21     9.338       38     24.7    2.304   -9.900     0.82    0.000    0.000       11        9     2063  Maize_short_Chisinau_22May_Optimum_26_MOHC.PRM
  Tot(45)       22        5     2064     57.2    682.0   1612.7   440.00      0.0     56.1      1.1      3.5      0.0     79.5       19    164.6    164.6       72     0.000     0.000     0.000     0.000       85        0        0        0        0       33       21     8.034       33     21.8    1.751   -9.900     0.74    0.000    0.000       11        9     2064  Maize_short_Chisinau_22May_Optimum_26_MOHC.PRM
  Tot(46)       22        5     2065     37.6    744.5   1672.7   440.00      0.0     37.6      0.0      0.0      0.0     70.7       12    152.7    152.7       82     0.000     0.000     0.000     0.000       94        0        0        0        1       41       16     7.040       29     30.5    2.144   -9.900     0.97    0.000    0.000       11        9     2065  Maize_short_Chisinau_22May_Optimum_26_MOHC.PRM
  Tot(47)       22        5     2066    222.9    617.5   1507.8   440.00      0.0    189.9     33.0      0.1      0.0    116.0       35    222.3    221.4       78     0.000     0.000     0.000     0.000      107        0        0        0        4       28       11    13.514       58     40.3    5.452   -9.900     1.61    0.000    0.000       11        9     2066  Maize_short_Chisinau_22May_Optimum_26_MOHC.PRM
  Tot(48)       22        5     2067     73.7    654.0   1554.0   439.00      0.0     73.1      0.6      0.0      0.0     71.4       18    206.5    206.8       78     0.000     0.000     0.000     0.000      107        0        0        0        2       35       16    11.558       47     40.5    4.687   -9.900     1.69    0.000    0.000       11        9     2067  Maize_short_Chisinau_22May_Optimum_26_MOHC.PRM
  Tot(49)       22        5     2068    169.7    572.7   1419.8   439.00      0.0    165.8      3.9      6.1      0.0    126.7       50    249.7    250.3       80     0.000     0.000     0.000     0.000      106        0        0        0        5       13       19    15.294       63     39.8    6.086   -9.900     1.62    0.000    0.000       11        9     2068  Maize_short_Chisinau_22May_Optimum_26_MOHC.PRM
  Tot(50)       22        5     2069     78.9    640.5   1598.8   438.00      0.0     78.5      0.4      0.2      0.0     98.4       26    184.8    184.8       77     0.000     0.000     0.000     0.000       93        0        0        0        1       30       19    10.488       43     30.1    3.157   -9.900     1.12    0.000    0.000       11        9     2069  Maize_short_Chisinau_22May_Optimum_26_MOHC.PRM
  Tot(51)       22        5     2070     45.8    620.6   1525.6   437.00      0.0     45.8      0.0      0.0      0.0     74.0       20    171.0    171.0       74     0.000     0.000     0.000     0.000       90        0        0        0        4       31       19     9.156       38     27.0    2.471   -9.900     1.02    0.000    0.000       11        9     2070  Maize_short_Chisinau_22May_Optimum_26_MOHC.PRM
  Tot(52)       22        5     2071    136.8    604.8   1497.1   437.00      0.0    128.3      8.5      0.0      0.0     95.3       29    221.1    220.5       80     0.000     0.000     0.000     0.000      107        0        0        0        5       25       13    13.448       57     40.4    5.437   -9.900     1.72    0.000    0.000       11        9     2071  Maize_short_Chisinau_22May_Optimum_26_MOHC.PRM
  Tot(53)       22        5     2072     61.0    639.9   1534.6   436.00      0.0     61.0      0.0      0.0      0.0     86.8       22    179.7    180.3       79     0.000     0.000     0.000     0.000       94        0        0        0        2       34       18    10.078       41     31.2    3.144   -9.900     1.19    0.000    0.000       11        9     2072  Maize_short_Chisinau_22May_Optimum_26_MOHC.PRM
  Tot(54)       22        5     2073     75.8    691.5   1651.7   436.00      0.0     74.8      1.0      1.8      0.0     89.6       20    188.9    188.9       76     0.000     0.000     0.000     0.000      107        0        0        0        1       33       31     9.451       38     29.3    2.765   -9.900     0.99    0.000    0.000       11        9     2073  Maize_short_Chisinau_22May_Optimum_26_MOHC.PRM
  Tot(55)       22        5     2074     86.4    612.8   1444.0   435.00      0.0     86.1      0.3      0.0      0.0     91.0       29    208.1    208.1       75     0.000     0.000     0.000     0.000       94        0        0        0        5       20       20    11.634       48     30.7    3.570   -9.900     1.20    0.000    0.000       11        9     2074  Maize_short_Chisinau_22May_Optimum_26_MOHC.PRM
  Tot(56)       22        5     2075    119.6    585.0   1453.4   435.00      0.0    118.4      1.2      2.1      0.0    120.1       42    206.6    206.6       74     0.000     0.000     0.000     0.000       94        0        0        0        4       19       21    11.775       49     30.7    3.613   -9.900     1.12    0.000    0.000       11        9     2075  Maize_short_Chisinau_22May_Optimum_26_MOHC.PRM
  Tot(57)       22        5     2076     75.0    725.1   1706.8   434.00      0.0     74.0      1.0      0.0      0.0     97.3       22    176.5    176.5       70     0.000     0.000     0.000     0.000       86        0        0        0        1       31       21     8.547       35     20.1    1.720   -9.900     0.63    0.000    0.000       11        9     2076  Maize_short_Chisinau_22May_Optimum_26_MOHC.PRM
  Tot(58)       22        5     2077     72.1    721.1   1566.5   433.00      0.0     72.0      0.1      0.0      0.0     99.4       20    165.1    165.1       76     0.000     0.000     0.000     0.000       86        0        0        0        2       37       19     7.597       31     23.1    1.751   -9.900     0.67    0.000    0.000       11        9     2077  Maize_short_Chisinau_22May_Optimum_26_MOHC.PRM
  Tot(59)       22        5     2078    114.8    641.5   1641.7   433.00      0.0    114.6      0.2      0.0      0.0    129.2       35    192.9    192.9       75     0.000     0.000     0.000     0.000       93        0        0        0        1       26       20    10.928       45     29.8    3.253   -9.900     1.04    0.000    0.000       11        9     2078  Maize_short_Chisinau_22May_Optimum_26_MOHC.PRM
  Tot(60)       22        5     2079     95.0    618.3   1540.3   432.00      0.0     94.8      0.2      0.0      0.0    106.7       32    189.7    189.7       73     0.000     0.000     0.000     0.000       90        0        0        0        4       26       20    10.174       42     27.1    2.754   -9.900     0.95    0.000    0.000       11        9     2079  Maize_short_Chisinau_22May_Optimum_26_MOHC.PRM
  Tot(61)       22        5     2080    135.0    667.2   1593.7   432.00      0.0    115.6     19.4     29.5      0.0    103.5       27    179.9    179.9       69     0.000     0.000     0.000     0.000       86        0        0        0        2       28       21     8.966       37     21.6    1.934   -9.900     0.71    0.000    0.000       11        9     2080  Maize_short_Chisinau_22May_Optimum_26_MOHC.PRM
  Tot(62)       22        5     2081     83.4    707.5   1740.2   431.00      0.0     83.1      0.3      0.0      0.0    106.2       22    164.2    164.2       73     0.000     0.000     0.000     0.000      107        0        0        0        0       35       33     7.782       32     21.6    1.681   -9.900     0.62    0.000    0.000       11        9     2081  Maize_short_Chisinau_22May_Optimum_26_MOHC.PRM
  Tot(63)       22        5     2082     45.7    757.0   1716.8   431.00      0.0     45.6      0.1      0.0      0.0     75.7       15    164.3    164.3       73     0.000     0.000     0.000     0.000       85        0        0        0        0       35       20     7.660       31     21.8    1.673   -9.900     0.70    0.000    0.000       11        9     2082  Maize_short_Chisinau_22May_Optimum_26_MOHC.PRM
  Tot(64)       22        5     2083    118.1    679.9   1606.8   430.00      0.0    116.4      1.7      1.1      0.0    120.0       28    181.6    181.4       74     0.000     0.000     0.000     0.000      107        0        0        0        2       32       17     8.823       36     31.0    2.738   -9.900     0.91    0.000    0.000       11        9     2083  Maize_short_Chisinau_22May_Optimum_26_MOHC.PRM
  Tot(65)       22        5     2084    127.3    665.2   1633.6   429.00      0.0    123.8      3.5      7.5      0.0    128.1       35    190.6    190.7       70     0.000     0.000     0.000     0.000       87        0        0        0        2       26       22     9.547       39     23.5    2.241   -9.900     0.71    0.000    0.000       11        9     2084  Maize_short_Chisinau_22May_Optimum_26_MOHC.PRM
  Tot(66)       22        5     2085     93.2    626.0   1581.1   429.00      0.0     83.0     10.2     14.2      0.0     92.9       25    174.7    174.7       74     0.000     0.000     0.000     0.000       88        0        0        0        3       31       20     9.173       37     25.0    2.289   -9.900     0.88    0.000    0.000       11        9     2085  Maize_short_Chisinau_22May_Optimum_26_MOHC.PRM
  Tot(67)       22        5     2086     80.5    608.1   1502.6   428.00      0.0     80.4      0.1      0.0      0.0     98.1       29    177.5    177.5       72     0.000     0.000     0.000     0.000       90        0        0        0        3       28       21     9.588       40     26.8    2.573   -9.900     0.94    0.000    0.000       11        9     2086  Maize_short_Chisinau_22May_Optimum_26_MOHC.PRM
  Tot(68)       22        5     2087     76.9    713.2   1730.0   428.00      0.0     76.9      0.0      0.0      0.0     94.6       19    167.3    167.3       76     0.000     0.000     0.000     0.000       95        0        0        0        0       35       18     8.167       33     31.2    2.546   -9.900     1.00    0.000    0.000       11        9     2087  Maize_short_Chisinau_22May_Optimum_26_MOHC.PRM
  Tot(69)       22        5     2088    168.5    576.5   1472.3   427.00      0.0    154.6     13.9     12.5      0.0    115.5       41    212.1    211.9       74     0.000     0.000     0.000     0.000      107        0        0        0        4       22       16    12.110       51     40.1    4.854   -9.900     1.48    0.000    0.000       11        9     2088  Maize_short_Chisinau_22May_Optimum_26_MOHC.PRM
  Tot(70)       22        5     2089    149.9    610.3   1581.9   427.00      0.0    149.2      0.7      0.0      0.0    145.0       43    209.1    209.2       78     0.000     0.000     0.000     0.000       98        0        0        0        1       24       18    12.133       50     35.2    4.275   -9.900     1.21    0.000    0.000       11        9     2089  Maize_short_Chisinau_22May_Optimum_26_MOHC.PRM
  Tot(71)       22        5     2090     95.4    712.5   1694.0   426.00      0.0     95.4      0.0      0.0      0.0    116.2       24    182.3    182.3       78     0.000     0.000     0.000     0.000       92        0        0        0        1       35       18     9.367       38     29.2    2.731   -9.900     0.92    0.000    0.000       11        9     2090  Maize_short_Chisinau_22May_Optimum_26_MOHC.PRM
  Tot(72)       22        5     2091     98.6    586.6   1512.0   425.00      0.0     98.4      0.2      0.0      0.0     91.3       28    217.2    216.8       79     0.000     0.000     0.000     0.000      107        0        0        0        4       23       16    14.394       61     40.1    5.778   -9.900     1.87    0.000    0.000       11        9     2091  Maize_short_Chisinau_22May_Optimum_26_MOHC.PRM
  Tot(73)       22        5     2092    103.6    606.6   1533.4   425.00      0.0    103.1      0.5      0.0      0.0    105.4       37    217.7    218.1       73     0.000     0.000     0.000     0.000       99        0        0        0        4       15       21    13.159       54     35.1    4.617   -9.900     1.43    0.000    0.000       11        9     2092  Maize_short_Chisinau_22May_Optimum_26_MOHC.PRM
  Tot(74)       22        5     2093     68.4    672.7   1620.7   424.00      0.0     68.4      0.0      0.0      0.0     95.3       23    173.0    173.0       72     0.000     0.000     0.000     0.000       87        0        0        0        1       31       21     8.736       36     23.7    2.073   -9.900     0.80    0.000    0.000       11        9     2093  Maize_short_Chisinau_22May_Optimum_26_MOHC.PRM
  Tot(75)       22        5     2094    156.8    620.1   1523.2   424.00      0.0    129.6     27.2     15.1      0.0     98.6       27    178.1    178.1       74     0.000     0.000     0.000     0.000       90        0        0        0        2       29       20     9.834       41     26.8    2.638   -9.900     1.01    0.000    0.000       11        9     2094  Maize_short_Chisinau_22May_Optimum_26_MOHC.PRM
  Tot(76)       22        5     2095    181.0    660.2   1569.0   423.00      0.0    165.5     15.5      0.0      0.0    107.4       32    206.2    206.2       71     0.000     0.000     0.000     0.000       90        0        0        0        3       22       22    10.281       43     26.5    2.724   -9.900     0.87    0.000    0.000       11        9     2095  Maize_short_Chisinau_22May_Optimum_26_MOHC.PRM
  Tot(77)       22        5     2096     65.7    703.8   1713.6   423.00      0.0     65.7      0.0      0.0      0.0     94.3       19    172.9    172.9       79     0.000     0.000     0.000     0.000       94        0        0        0        0       34       18     9.048       37     31.2    2.825   -9.900     1.10    0.000    0.000       11        9     2096  Maize_short_Chisinau_22May_Optimum_26_MOHC.PRM
  Tot(78)       22        5     2097     83.8    622.1   1579.2   422.00      0.0     81.6      2.2      7.6      0.0     90.7       28    194.7    194.7       71     0.000     0.000     0.000     0.000       92        0        0        0        4       23       21    10.841       44     28.5    3.088   -9.900     1.10    0.000    0.000       11        9     2097  Maize_short_Chisinau_22May_Optimum_26_MOHC.PRM
  Tot(79)       22        5     2098     51.7    636.3   1446.4   422.00      0.0     51.7      0.0      0.0      0.0     60.2       17    208.7    208.7       77     0.000     0.000     0.000     0.000      102        0        0        0        4       28       20    12.114       50     38.4    4.654   -9.900     1.75    0.000    0.000       11        9     2098  Maize_short_Chisinau_22May_Optimum_26_MOHC.PRM
  Tot(80)       22        5     2099     28.4    796.0   1713.5   421.00      0.0     28.4      0.0      0.0      0.0     62.6       10    153.8    153.8       76     0.000     0.000     0.000     0.000       85        0        0        0        3       40       18     6.473       27     22.1    1.430   -9.900     0.67    0.000    0.000       11        9     2099  Maize_short_Chisinau_22May_Optimum_26_MOHC.PRM
