AquaCrop 6.0 (March 2017) - Output created on (date) : 28/06/2021   at (time) : 13:35:31

    RunNr     Day1   Month1    Year1     Rain      ETo       GD     CO2      Irri   Infilt   Runoff    Drain   Upflow        E     E/Ex       Tr      TrW   Tr/Trx    SaltIn   SaltOut    SaltUp  SaltProf     Cycle   SaltStr  FertStr  WeedStr  TempStr   ExpStr   StoStr  BioMass  Brelative   HI     Yield     WPet     DayN   MonthN    YearN
                                           mm       mm    °C.day    ppm        mm       mm       mm       mm       mm       mm        %       mm       mm        %    ton/ha    ton/ha    ton/ha    ton/ha      days       %        %        %        %        %        %    ton/ha        %       %    ton/ha    kg/m3
   Tot(1)       15        4     2017   1203.2    445.7   1566.3   404.00    152.6   1203.2      0.0    980.0      0.0    219.0       78    152.8    152.8      100     0.000     0.000     0.000     0.000      123        0        0        0       10        0        0    17.744       99     30.0    5.323     1.44       23        8     2017  1206_RCP45_net_15April_sandyloam.PRM
   Tot(2)       15        4     2018   1641.6    431.2   1564.5   407.00    139.7   1641.6      0.0   1415.5      0.0    230.1       82    136.0    136.0      100     0.000     0.000     0.000     0.000      136        0        0        0       18        0        0    18.116       99     30.0    5.435     1.49        6        9     2018  1206_RCP45_net_15April_sandyloam.PRM
   Tot(3)       15        4     2019    944.1    469.5   1562.1   409.00    220.6    944.1      0.0    739.7      0.0    221.8       78    182.9    182.9      100     0.000     0.000     0.000     0.000      121        0        0        0       11        1        0    17.195       99     30.0    5.158     1.28       22        8     2019  1206_RCP45_net_15April_sandyloam.PRM
   Tot(4)       15        4     2020   1246.7    433.2   1564.5   411.00    128.7   1246.7      0.0   1011.4      0.0    222.9       78    139.3    139.3      100     0.000     0.000     0.000     0.000      129        0        0        0       15        0        0    17.988       99     30.0    5.396     1.50       31        8     2020  1206_RCP45_net_15April_sandyloam.PRM
   Tot(5)       15        4     2021   2148.2    343.9   1563.4   413.00     34.8   2148.2      0.0   1883.9      0.0    197.7       88     90.9     90.9      100     0.000     0.000     0.000     0.000      141        0        0        0       20        0        0    18.531       99     30.0    5.559     1.93       13        9     2021  1206_RCP45_net_15April_sandyloam.PRM
   Tot(6)       15        4     2022   1677.0    386.5   1561.9   416.00     69.6   1677.0      0.0   1420.6      0.0    205.7       82    114.7    114.7      100     0.000     0.000     0.000     0.000      138        0        0        0       19        0       -0    18.420       99     30.0    5.526     1.73        7        9     2022  1206_RCP45_net_15April_sandyloam.PRM
   Tot(7)       15        4     2023   1564.7    381.2   1564.8   418.00     72.9   1564.7      0.0   1306.4      0.0    214.6       88    110.4    110.4      100     0.000     0.000     0.000     0.000      136        0        0        0       17        0        0    18.487       99     30.0    5.546     1.71        6        9     2023  1206_RCP45_net_15April_sandyloam.PRM
   Tot(8)       15        4     2024   1003.7    446.0   1561.2   420.00    132.0   1003.7      0.0    747.0      0.0    237.2       86    142.9    142.9      100     0.000     0.000     0.000     0.000      130        0        0        0       14        0        0    18.297       99     30.0    5.489     1.45       31        8     2024  1206_RCP45_net_15April_sandyloam.PRM
   Tot(9)       15        4     2025   1387.6    474.2   1558.5   423.00    238.0   1387.6      0.0   1213.4      0.0    258.0       80    148.7    148.7      100     0.000     0.000     0.000     0.000      124        0        0        0       12        1        0    17.937       99     30.0    5.381     1.33       23        8     2025  1206_RCP45_net_15April_sandyloam.PRM
  Tot(10)       15        4     2026   1732.4    420.1   1559.4   425.00     75.8   1732.4      0.0   1461.2      0.0    203.5       76    133.4    133.4      100     0.000     0.000     0.000     0.000      129        0        0        0       15        0       -0    18.174       99     30.0    5.452     1.62       29        8     2026  1206_RCP45_net_15April_sandyloam.PRM
  Tot(11)       15        4     2027   1387.0    435.3   1567.1   428.00    205.9   1387.0      0.0   1198.7      0.0    203.2       78    175.5    175.5      100     0.000     0.000     0.000     0.000      118        0        0        0        9        1        0    17.442       99     30.0    5.233     1.38       17        8     2027  1206_RCP45_net_15April_sandyloam.PRM
  Tot(12)       15        4     2028   1448.2    411.4   1557.9   430.00     61.1   1448.2      0.0   1153.0      0.0    223.3       88    128.1    128.1      100     0.000     0.000     0.000     0.000      132        0        0        0       15        0        0    18.392       99     30.0    5.518     1.57        3        9     2028  1206_RCP45_net_15April_sandyloam.PRM
  Tot(13)       15        4     2029   1450.9    459.0   1557.2   433.00    150.4   1450.9      0.0   1222.8      0.0    215.3       77    168.8    168.8      100     0.000     0.000     0.000     0.000      124        0        0        0       12        0        0    17.542       99     30.0    5.263     1.37       23        8     2029  1206_RCP45_net_15April_sandyloam.PRM
  Tot(14)       15        4     2030   1566.2    399.1   1566.5   435.00     72.4   1566.2      0.0   1297.9      0.0    228.3       88    116.8    116.8      100     0.000     0.000     0.000     0.000      135        0        0        0       17        0        0    18.505       99     30.0    5.551     1.62        4        9     2030  1206_RCP45_net_15April_sandyloam.PRM
  Tot(15)       15        4     2031   1318.1    490.5   1558.3   438.00    203.7   1318.1      0.0   1087.8      0.0    247.6       82    181.1    181.1      100     0.000     0.000     0.000     0.000      126        0        0        0       15        1        0    17.529       99     30.0    5.259     1.23       26        8     2031  1206_RCP45_net_15April_sandyloam.PRM
  Tot(16)       15        4     2032   1541.8    423.0   1562.3   440.00     93.4   1541.8      0.0   1284.6      0.0    222.8       83    135.4    135.4      100     0.000     0.000     0.000     0.000      127        0        0        0       13        0        0    18.077       99     30.0    5.423     1.53       28        8     2032  1206_RCP45_net_15April_sandyloam.PRM
  Tot(17)       15        4     2033   1274.5    417.9   1563.4   443.00     99.5   1274.5      0.0   1022.5      0.0    222.2       83    132.0    132.0      100     0.000     0.000     0.000     0.000      126        0        0        0       12        0        0    18.277       99     30.0    5.483     1.56       25        8     2033  1206_RCP45_net_15April_sandyloam.PRM
  Tot(18)       15        4     2034   1186.7    393.9   1565.2   445.00     39.0   1186.7      0.0    890.3      0.0    221.9       90    112.5    112.5      100     0.000     0.000     0.000     0.000      138        0        0        0       18        0        0    18.653       99     30.0    5.596     1.69        9        9     2034  1206_RCP45_net_15April_sandyloam.PRM
  Tot(19)       15        4     2035   1361.0    415.6   1558.3   448.00    107.5   1361.0      0.0   1090.7      0.0    219.9       88    154.8    154.8      100     0.000     0.000     0.000     0.000      122        0        0        0       11        0        0    17.928       99     30.0    5.378     1.44       23        8     2035  1206_RCP45_net_15April_sandyloam.PRM
  Tot(20)       15        4     2036   1809.9    364.3   1557.9   450.00     42.3   1809.9      0.0   1554.3      0.0    196.0       86    108.4    108.4      100     0.000     0.000     0.000     0.000      132        0        0        0       15        0        0    18.635       99     30.0    5.590     1.85        1        9     2036  1206_RCP45_net_15April_sandyloam.PRM
  Tot(21)       15        4     2037   1164.3    431.7   1557.5   453.00    124.1   1164.3      0.0    935.8      0.0    235.6       82    121.6    121.6      100     0.000     0.000     0.000     0.000      129        0        0        0       14        0        0    18.470       99     30.0    5.541     1.56       30        8     2037  1206_RCP45_net_15April_sandyloam.PRM
  Tot(22)       15        4     2038   1881.7    398.7   1565.8   456.00     80.3   1881.7      0.0   1633.2      0.0    200.1       77    125.9    125.9      100     0.000     0.000     0.000     0.000      134        0        0        0       16        0        0    18.473       99     30.0    5.542     1.70        3        9     2038  1206_RCP45_net_15April_sandyloam.PRM
  Tot(23)       15        4     2039   1697.9    333.5   1558.7   458.00     43.2   1697.9      0.0   1462.5      0.0    181.3       83     96.2     96.2      100     0.000     0.000     0.000     0.000      131        0        0        0       15        0        0    18.709       99     30.0    5.613     2.03        1        9     2039  1206_RCP45_net_15April_sandyloam.PRM
  Tot(24)       15        4     2040   1499.7    388.2   1559.8   461.00     94.1   1499.7      0.0   1235.3      0.0    210.8       87    129.1    129.1      100     0.000     0.000     0.000     0.000      124        0        0        0       12        0        0    18.275       99     30.0    5.482     1.62       25        8     2040  1206_RCP45_net_15April_sandyloam.PRM
  Tot(25)       15        4     2041   1187.2    469.6   1560.9   463.00    250.6   1187.2      0.0   1015.1      0.0    238.1       84    183.5    183.5      100     0.000     0.000     0.000     0.000      116        0        0        0        9        1        0    17.370       99     30.0    5.211     1.24       16        8     2041  1206_RCP45_net_15April_sandyloam.PRM
  Tot(26)       15        4     2042    906.2    463.3   1562.5   466.00    210.2    906.2      0.0    702.9      0.0    227.4       82    176.0    176.0      100     0.000     0.000     0.000     0.000      120        0        0        0       10        1        0    17.667       99     30.0    5.300     1.32       21        8     2042  1206_RCP45_net_15April_sandyloam.PRM
  Tot(27)       15        4     2043   1524.1    410.7   1561.5   469.00    109.8   1524.1      0.0   1282.4      0.0    210.4       77    128.5    128.5      100     0.000     0.000     0.000     0.000      123        0        0        0       11        0        0    18.426       99     30.0    5.528     1.64       23        8     2043  1206_RCP45_net_15April_sandyloam.PRM
  Tot(28)       15        4     2044   1943.8    365.2   1558.1   471.00     84.2   1943.8      0.0   1710.3      0.0    211.2       87    107.7    107.7      100     0.000     0.000     0.000     0.000      124        0        0        0       11        0        0    18.577       99     30.0    5.573     1.76       24        8     2044  1206_RCP45_net_15April_sandyloam.PRM
  Tot(29)       15        4     2045   1571.0    380.6   1557.1   474.00     53.1   1571.0      0.0   1294.4      0.0    216.4       88    109.3    109.3      100     0.000     0.000     0.000     0.000      137        0        0        0       17        0        0    18.828       99     30.0    5.648     1.73        6        9     2045  1206_RCP45_net_15April_sandyloam.PRM
  Tot(30)       15        4     2046   2008.4    377.7   1563.9   476.00     73.4   2008.4      0.0   1789.6      0.0    198.3       76     95.9     95.9      100     0.000     0.000     0.000     0.000      134        0        0        0       17        0        0    18.718       99     30.0    5.615     1.92        4        9     2046  1206_RCP45_net_15April_sandyloam.PRM
  Tot(31)       15        4     2047   1138.4    362.2   1559.5   479.00     50.2   1138.4      0.0    871.8      0.0    206.2       90    110.3    110.3      100     0.000     0.000     0.000     0.000      128        0        0        0       13        0        0    18.715       99     30.0    5.614     1.78       29        8     2047  1206_RCP45_net_15April_sandyloam.PRM
  Tot(32)       15        4     2048   1123.3    413.2   1560.7   481.00    117.2   1123.3      0.0    900.2      0.0    211.3       80    126.7    126.7      100     0.000     0.000     0.000     0.000      126        0        0        0       13        0        0    18.569       99     30.0    5.571     1.65       26        8     2048  1206_RCP45_net_15April_sandyloam.PRM
  Tot(33)       15        4     2049   1436.4    437.1   1566.4   484.00    189.5   1436.4      0.0   1254.9      0.0    211.2       80    162.7    162.7      100     0.000     0.000     0.000     0.000      120        0        0        0       10        0        0    17.750       99     30.0    5.325     1.43       19        8     2049  1206_RCP45_net_15April_sandyloam.PRM
  Tot(34)       15        4     2050   1673.7    332.2   1562.6   487.00     23.9   1673.7      0.0   1374.3      0.0    198.5       94     99.3     99.3      100     0.000     0.000     0.000     0.000      130        0        0        0       14        0        0    18.786       99     30.0    5.636     1.90       31        8     2050  1206_RCP45_net_15April_sandyloam.PRM
  Tot(35)       15        4     2051   1578.8    418.7   1561.8   489.00    153.0   1578.8      0.0   1385.2      0.0    234.8       82    120.2    120.2      100     0.000     0.000     0.000     0.000      120        0        0        0       10        0        0    18.130       99     30.0    5.439     1.54       19        8     2051  1206_RCP45_net_15April_sandyloam.PRM
  Tot(36)       15        4     2052   1818.8    424.7   1564.5   492.00    145.9   1818.8      0.0   1612.9      0.0    217.0       79    137.3    137.3      100     0.000     0.000     0.000     0.000      121        0        0        0       11        0        0    17.980       99     30.0    5.394     1.53       21        8     2052  1206_RCP45_net_15April_sandyloam.PRM
  Tot(37)       15        4     2053   1619.5    395.8   1559.7   494.00     89.2   1619.5      0.0   1393.2      0.0    206.5       77    114.5    114.5      100     0.000     0.000     0.000     0.000      127        0        0        0       13        0        0    18.524       99     30.0    5.557     1.74       27        8     2053  1206_RCP45_net_15April_sandyloam.PRM
  Tot(38)       15        4     2054   1979.1    384.1   1557.9   496.00    113.6   1979.1      0.0   1763.6      0.0    207.6       82    117.9    117.9      100     0.000     0.000     0.000     0.000      124        0        0        0       12        0        0    18.399       99     30.0    5.520     1.70       24        8     2054  1206_RCP45_net_15April_sandyloam.PRM
  Tot(39)       15        4     2055   1263.2    414.0   1559.1   498.00     88.3   1263.2      0.0   1004.7      0.0    199.9       78    143.6    143.6      100     0.000     0.000     0.000     0.000      121        0        0        0       10        0        0    18.214       99     30.0    5.464     1.59       21        8     2055  1206_RCP45_net_15April_sandyloam.PRM
  Tot(40)       15        4     2056   1231.1    409.0   1558.7   501.00     80.8   1231.1      0.0    980.7      0.0    204.0       79    127.4    127.4      100     0.000     0.000     0.000     0.000      129        0        0        0       14        0       -0    18.634       99     30.0    5.590     1.69       28        8     2056  1206_RCP45_net_15April_sandyloam.PRM
  Tot(41)       15        4     2057   1422.0    416.6   1561.2   503.00    118.4   1422.0      0.0   1243.9      0.0    183.5       65    114.5    114.5      100     0.000     0.000     0.000     0.000      124        0        0        0       13        0        0    18.415       99     30.0    5.525     1.86       23        8     2057  1206_RCP45_net_15April_sandyloam.PRM
  Tot(42)       15        4     2058   1526.8    356.9   1563.6   505.00     50.1   1526.8      0.0   1280.5      0.0    198.1       82     94.8     94.8      100     0.000     0.000     0.000     0.000      130        0        0        0       13        0        0    18.839       99     30.0    5.652     1.94        1        9     2058  1206_RCP45_net_15April_sandyloam.PRM
  Tot(43)       15        4     2059   1763.6    382.0   1564.5   507.00     52.1   1763.6      0.0   1495.6      0.0    220.7       87    103.9    103.9      100     0.000     0.000     0.000     0.000      134        0        0        0       17        0        0    18.775       99     30.0    5.633     1.74        3        9     2059  1206_RCP45_net_15April_sandyloam.PRM
  Tot(44)       15        4     2060   2042.7    341.2   1563.5   509.00     69.0   2042.7      0.0   1828.9      0.0    176.9       79    103.0    103.0      100     0.000     0.000     0.000     0.000      124        0        0        0       11        0        0    18.507       99     30.0    5.552     1.99       24        8     2060  1206_RCP45_net_15April_sandyloam.PRM
  Tot(45)       15        4     2061   1346.8    410.9   1558.5   511.00    146.0   1346.8      0.0   1131.9      0.0    218.7       82    132.3    132.3      100     0.000     0.000     0.000     0.000      124        0        0        0       12        0        0    18.240       99     30.0    5.472     1.57       24        8     2061  1206_RCP45_net_15April_sandyloam.PRM
  Tot(46)       15        4     2062   1573.7    376.9   1566.8   513.00     94.3   1573.7      0.0   1373.7      0.0    197.1       75    100.7    100.7      100     0.000     0.000     0.000     0.000      125        0        0        0       12        0        0    18.570       99     30.0    5.571     1.89       25        8     2062  1206_RCP45_net_15April_sandyloam.PRM
  Tot(47)       15        4     2063   1644.9    401.0   1563.7   514.00    126.0   1644.9      0.0   1431.4      0.0    201.2       75    119.0    119.0      100     0.000     0.000     0.000     0.000      120        0        0        0        9        0        0    18.408       99     30.0    5.522     1.73       19        8     2063  1206_RCP45_net_15April_sandyloam.PRM
  Tot(48)       15        4     2064   1770.6    390.0   1567.6   516.00     57.6   1770.6      0.0   1513.1      0.0    212.3       80    104.9    104.9      100     0.000     0.000     0.000     0.000      127        0        0        0       12        0        0    18.727       99     30.0    5.618     1.79       29        8     2064  1206_RCP45_net_15April_sandyloam.PRM
  Tot(49)       15        4     2065   1606.3    433.4   1558.7   518.00    194.8   1606.3      0.0   1420.3      0.0    204.0       78    169.8    169.8      100     0.000     0.000     0.000     0.000      115        0        0        0        8        1        0    17.590       99     30.0    5.277     1.42       14        8     2065  1206_RCP45_net_15April_sandyloam.PRM
  Tot(50)       15        4     2066   1678.4    348.8   1568.4   519.00     71.3   1678.4      0.0   1449.7      0.0    207.1       91     97.6     97.6      100     0.000     0.000     0.000     0.000      128        0        0        0       13        0        0    18.609       99     30.0    5.583     1.84       27        8     2066  1206_RCP45_net_15April_sandyloam.PRM
  Tot(51)       15        4     2067   2048.5    367.1   1566.1   520.00    103.6   2048.5      0.0   1850.8      0.0    177.6       78    123.3    123.3      100     0.000     0.000     0.000     0.000      126        0        0        0       12        0        0    18.618       99     30.0    5.586     1.87       26        8     2067  1206_RCP45_net_15April_sandyloam.PRM
  Tot(52)       15        4     2068   1129.4    429.8   1557.7   522.00    155.4   1129.4      0.0    945.0      0.0    225.0       81    121.0    121.0      100     0.000     0.000     0.000     0.000      122        0        0        0       11        0        0    18.345       99     30.0    5.503     1.60       21        8     2068  1206_RCP45_net_15April_sandyloam.PRM
  Tot(53)       15        4     2069   1543.3    370.0   1559.7   523.00     96.3   1543.3      0.0   1316.6      0.0    199.8       83    106.0    106.0      100     0.000     0.000     0.000     0.000      127        0        0        0       13        0        0    18.740       99     30.0    5.622     1.84       29        8     2069  1206_RCP45_net_15April_sandyloam.PRM
  Tot(54)       15        4     2070   1952.2    375.2   1567.2   524.00     32.9   1952.2      0.0   1659.2      0.0    222.0       92    104.1    104.1      100     0.000     0.000     0.000     0.000      127        0        0        0       13        0        0    18.736       99     30.0    5.621     1.73       27        8     2070  1206_RCP45_net_15April_sandyloam.PRM
  Tot(55)       15        4     2071   1201.5    384.2   1565.5   525.00     65.3   1201.5      0.0    966.8      0.0    184.9       73    113.5    113.5      100     0.000     0.000     0.000     0.000      123        0        0        0       10        0        0    18.512       99     30.0    5.554     1.87       21        8     2071  1206_RCP45_net_15April_sandyloam.PRM
  Tot(56)       15        4     2072   1513.4    364.1   1563.2   527.00     47.8   1513.4      0.0   1238.6      0.0    196.2       83    114.5    114.5      100     0.000     0.000     0.000     0.000      122        0        0        0       10        0        0    18.340       99     30.0    5.502     1.77       20        8     2072  1206_RCP45_net_15April_sandyloam.PRM
  Tot(57)       15        4     2073   1396.4    394.0   1567.6   527.00    104.5   1396.4      0.0   1185.8      0.0    195.3       74    117.3    117.3      100     0.000     0.000     0.000     0.000      117        0        0        0        8        0        0    18.141       99     30.0    5.442     1.75       18        8     2073  1206_RCP45_net_15April_sandyloam.PRM
  Tot(58)       15        4     2074   1740.9    316.1   1568.3   528.00     17.8   1740.9      0.0   1490.6      0.0    184.9       92     85.4     85.4      100     0.000     0.000     0.000     0.000      133        0        0        0       15        0        0    19.019       99     30.0    5.706     2.13        2        9     2074  1206_RCP45_net_15April_sandyloam.PRM
  Tot(59)       15        4     2075   1560.1    356.3   1564.6   529.00     23.7   1560.1      0.0   1297.3      0.0    173.1       80    114.8    114.8      100     0.000     0.000     0.000     0.000      122        0        0        0       10        0        0    18.448       99     30.0    5.534     1.93       21        8     2075  1206_RCP45_net_15April_sandyloam.PRM
  Tot(60)       15        4     2076   1317.8    363.3   1563.4   530.00    102.8   1317.8      0.0   1121.3      0.0    201.7       81     95.2     95.2      100     0.000     0.000     0.000     0.000      125        0        0        0       11        0        0    18.776       99     30.0    5.633     1.90       24        8     2076  1206_RCP45_net_15April_sandyloam.PRM
  Tot(61)       15        4     2077   1992.7    323.0   1564.3   530.00     20.3   1992.7      0.0   1727.3      0.0    183.9       92     94.2     94.2      100     0.000     0.000     0.000     0.000      126        0        0        0       12        0        0    18.830       99     30.0    5.649     2.05       25        8     2077  1206_RCP45_net_15April_sandyloam.PRM
  Tot(62)       15        4     2078   1793.2    366.2   1566.8   531.00     79.5   1793.2      0.0   1572.8      0.0    186.5       77    108.5    108.5      100     0.000     0.000     0.000     0.000      120        0        0        0        9        0        0    18.507       99     30.0    5.552     1.89       19        8     2078  1206_RCP45_net_15April_sandyloam.PRM
  Tot(63)       15        4     2079   1503.6    384.6   1564.8   531.00    117.7   1503.6      0.0   1283.0      0.0    218.8       86    120.4    120.4      100     0.000     0.000     0.000     0.000      119        0        0        0        9        0        0    18.199       99     30.0    5.460     1.62       19        8     2079  1206_RCP45_net_15April_sandyloam.PRM
  Tot(64)       15        4     2080   1758.6    387.2   1560.6   531.00    116.8   1758.6      0.0   1556.2      0.0    200.8       81    123.0    123.0      100     0.000     0.000     0.000     0.000      118        0        0        0        9        0        0    18.015       99     30.0    5.404     1.68       18        8     2080  1206_RCP45_net_15April_sandyloam.PRM
  Tot(65)       15        4     2081   1574.4    377.0   1565.2   531.00     98.0   1574.4      0.0   1329.1      0.0    200.6       79    103.1    103.1      100     0.000     0.000     0.000     0.000      121        0        0        0       10        0        0    18.627       99     30.0    5.588     1.85       20        8     2081  1206_RCP45_net_15April_sandyloam.PRM
  Tot(66)       15        4     2082   1772.3    381.1   1564.6   531.00    116.8   1772.3      0.0   1577.8      0.0    198.6       84    114.3    114.3      100     0.000     0.000     0.000     0.000      126        0        0        0       12        0        0    18.596       99     30.0    5.579     1.79       26        8     2082  1206_RCP45_net_15April_sandyloam.PRM
  Tot(67)       15        4     2083   1011.8    445.3   1558.4   532.00    190.1   1011.8      0.0    834.7      0.0    217.3       77    149.0    149.0      100     0.000     0.000     0.000     0.000      113        0        0        0        7        0        0    17.555       99     30.0    5.267     1.44       11        8     2083  1206_RCP45_net_15April_sandyloam.PRM
  Tot(68)       15        4     2084   1565.3    382.6   1558.3   532.00    102.2   1565.3      0.0   1329.7      0.0    195.0       79    118.6    118.6      100     0.000     0.000     0.000     0.000      118        0        0        0        9        0        0    18.486       99     30.0    5.546     1.77       18        8     2084  1206_RCP45_net_15April_sandyloam.PRM
  Tot(69)       15        4     2085   1753.2    347.3   1565.8   532.00     50.6   1753.2      0.0   1500.8      0.0    177.8       84    120.2    120.2      100     0.000     0.000     0.000     0.000      117        0        0        0        8        0        0    18.230       99     30.0    5.469     1.85       15        8     2085  1206_RCP45_net_15April_sandyloam.PRM
  Tot(70)       15        4     2086   1384.3    364.5   1564.8   532.00    110.3   1384.3      0.0   1179.9      0.0    193.8       84    114.5    114.5      100     0.000     0.000     0.000     0.000      119        0        0        0        9        0        0    18.438       99     30.0    5.531     1.80       17        8     2086  1206_RCP45_net_15April_sandyloam.PRM
  Tot(71)       15        4     2087   1628.9    358.0   1564.1   533.00     59.4   1628.9      0.0   1366.6      0.0    202.4       88    113.6    113.6      100     0.000     0.000     0.000     0.000      120        0        0        0        9        0        0    18.393       99     30.0    5.518     1.75       19        8     2087  1206_RCP45_net_15April_sandyloam.PRM
  Tot(72)       15        4     2088   1252.0    377.3   1564.5   533.00    140.3   1252.0      0.0   1108.0      0.0    186.5       71    101.8    101.8      100     0.000     0.000     0.000     0.000      120        0        0        0       11        0        0    18.392       99     30.0    5.518     1.93       18        8     2088  1206_RCP45_net_15April_sandyloam.PRM
  Tot(73)       15        4     2089   1472.4    378.9   1562.7   533.00    107.8   1472.4      0.0   1207.5      0.0    196.8       85    128.0    128.0      100     0.000     0.000     0.000     0.000      115        0        0        0        8        0        0    17.861       99     30.0    5.358     1.66       15        8     2089  1206_RCP45_net_15April_sandyloam.PRM
  Tot(74)       15        4     2090   1836.6    310.5   1560.3   534.00     35.1   1836.6      0.0   1603.8      0.0    178.3       90     88.2     88.2      100     0.000     0.000     0.000     0.000      126        0        0        0       13        0        0    18.835       99     30.0    5.651     2.13       25        8     2090  1206_RCP45_net_15April_sandyloam.PRM
  Tot(75)       15        4     2091   1688.1    390.3   1561.8   534.00    128.4   1688.1      0.0   1507.6      0.0    189.0       74    118.6    118.6      100     0.000     0.000     0.000     0.000      114        0        0        0        7        0       -0    18.071       99     30.0    5.421     1.77       13        8     2091  1206_RCP45_net_15April_sandyloam.PRM
  Tot(76)       15        4     2092   1857.2    304.8   1565.1   535.00     13.8   1857.2      0.0   1629.3      0.0    168.2       89     79.5     79.5      100     0.000     0.000     0.000     0.000      130        0        0        0       13        0        0    19.094       99     30.0    5.728     2.33       29        8     2092  1206_RCP45_net_15April_sandyloam.PRM
  Tot(77)       15        4     2093   1220.6    373.5   1565.9   535.00    107.7   1220.6      0.0   1005.0      0.0    188.6       80    124.6    124.6      100     0.000     0.000     0.000     0.000      117        0        0        0        8        0        0    18.283       99     30.0    5.485     1.76       17        8     2093  1206_RCP45_net_15April_sandyloam.PRM
  Tot(78)       15        4     2094   1430.3    343.4   1561.0   535.00     66.4   1430.3      0.0   1196.3      0.0    194.4       86    102.1    102.1      100     0.000     0.000     0.000     0.000      122        0        0        0       10        0        0    18.587       99     30.0    5.576     1.89       21        8     2094  1206_RCP45_net_15April_sandyloam.PRM
  Tot(79)       15        4     2095   1343.0    388.3   1565.9   536.00     97.4   1343.0      0.0   1116.6      0.0    208.5       84    123.1    123.1      100     0.000     0.000     0.000     0.000      118        0        0        0        9        0        0    18.164       99     30.0    5.449     1.65       18        8     2095  1206_RCP45_net_15April_sandyloam.PRM
  Tot(80)       15        4     2096   1217.0    375.4   1567.4   536.00    112.0   1217.0      0.0   1021.1      0.0    182.9       74    118.9    118.9      100     0.000     0.000     0.000     0.000      115        0        0        0        8        0        0    18.067       99     30.0    5.420     1.80       13        8     2096  1206_RCP45_net_15April_sandyloam.PRM
  Tot(81)       15        4     2097   1280.5    372.9   1563.1   537.00     96.0   1280.5      0.0   1050.6      0.0    203.1       84    118.0    118.0      100     0.000     0.000     0.000     0.000      116        0        0        0        8        0        0    18.171       99     30.0    5.451     1.71       16        8     2097  1206_RCP45_net_15April_sandyloam.PRM
  Tot(82)       15        4     2098   1814.1    383.2   1560.6   537.00    100.7   1814.1      0.0   1596.4      0.0    193.5       78    121.5    121.5      100     0.000     0.000     0.000     0.000      117        0        0        0        9        0        0    18.039       99     30.0    5.412     1.72       16        8     2098  1206_RCP45_net_15April_sandyloam.PRM
  Tot(83)       15        4     2099   1136.0    352.7   1568.8   538.00     34.9   1136.0      0.0    885.2      0.0    189.1       88    105.4    105.4      100     0.000     0.000     0.000     0.000      124        0        0        0       11        0        0    18.476       99     30.0    5.543     1.90       23        8     2099  1206_RCP45_net_15April_sandyloam.PRM
