AquaCrop 6.0 (March 2017) - Output created on (date) : 28/06/2021   at (time) : 13:39:04

    RunNr     Day1   Month1    Year1     Rain      ETo       GD     CO2      Irri   Infilt   Runoff    Drain   Upflow        E     E/Ex       Tr      TrW   Tr/Trx    SaltIn   SaltOut    SaltUp  SaltProf     Cycle   SaltStr  FertStr  WeedStr  TempStr   ExpStr   StoStr  BioMass  Brelative   HI     Yield     WPet     DayN   MonthN    YearN
                                           mm       mm    °C.day    ppm        mm       mm       mm       mm       mm       mm        %       mm       mm        %    ton/ha    ton/ha    ton/ha    ton/ha      days       %        %        %        %        %        %    ton/ha        %       %    ton/ha    kg/m3
   Tot(1)       15        5     2017   1329.0    373.5   1559.3   404.00     72.0   1329.0      0.0   1080.7      0.0    210.1       90    106.0    106.0      100     0.000     0.000     0.000     0.000      129        0        0        0       15        0       -0    18.274       99     30.0    5.482     1.75       28        9     2017  1206_RCP45_net_15May_loam.PRM
   Tot(2)       15        5     2018   1613.5    386.6   1561.3   407.00     68.4   1613.5      0.0   1369.1      0.0    210.7       89     98.4     98.4      100     0.000     0.000     0.000     0.000      141        0        0        0       21        0        0    18.446       99     30.0    5.534     1.79        9       10     2018  1206_RCP45_net_15May_loam.PRM
   Tot(3)       15        5     2019   1041.8    397.9   1558.6   409.00    102.5   1041.8      0.0    820.1      0.0    214.9       88    112.7    112.7      100     0.000     0.000     0.000     0.000      126        0        0        0       14        0        0    18.164       99     30.0    5.449     1.67       25        9     2019  1206_RCP45_net_15May_loam.PRM
   Tot(4)       15        5     2020   1277.0    368.4   1564.9   411.00     34.2   1277.0      0.0   1019.2      0.0    187.5       83    104.6    104.6      100     0.000     0.000     0.000     0.000      135        0        0        0       17        0        0    18.318       99     30.0    5.495     1.90        2       10     2020  1206_RCP45_net_15May_loam.PRM
   Tot(5)       15        5     2021   2127.9    341.1   1559.6   413.00     11.9   2127.9      0.0   1863.6      0.0    173.2       94     89.2     89.2      100     0.000     0.000     0.000     0.000      158        0        0        0       31        0        0    18.559       99     30.0    5.568     2.13       27       10     2021  1206_RCP45_net_15May_loam.PRM
   Tot(6)       15        5     2022   1639.2    374.3   1562.1   416.00     16.9   1639.2      0.0   1366.9      0.0    191.0       88     91.5     91.5      100     0.000     0.000     0.000     0.000      147        0        0        0       24        0        0    18.579       99     30.0    5.574     1.98       15       10     2022  1206_RCP45_net_15May_loam.PRM
   Tot(7)       15        5     2023   1633.0    345.3   1561.7   418.00      0.0   1633.0      0.0   1341.1      0.0    173.5       96    108.3    108.3      100     0.000     0.000     0.000     0.000      143        0        0        0       21        0        0    18.614       99     30.0    5.584     1.99       12       10     2023  1206_RCP45_net_15May_loam.PRM
   Tot(8)       15        5     2024   1116.6    400.2   1562.0   420.00     55.1   1116.6      0.0    835.1      0.0    215.7       90    113.1    113.1      100     0.000     0.000     0.000     0.000      137        0        0        0       19        0        0    18.479       99     30.0    5.544     1.69        6       10     2024  1206_RCP45_net_15May_loam.PRM
   Tot(9)       15        5     2025   1475.9    372.8   1561.8   423.00     79.0   1475.9      0.0   1259.5      0.0    208.9       87     98.5     98.5      100     0.000     0.000     0.000     0.000      129        0        0        0       14        0        0    18.492       99     30.0    5.548     1.82       26        9     2025  1206_RCP45_net_15May_loam.PRM
  Tot(10)       15        5     2026   1805.8    362.5   1560.9   425.00      4.9   1805.8      0.0   1503.0      0.0    208.2       97     95.4     95.4      100     0.000     0.000     0.000     0.000      139        0        0        0       20        0        0    18.456       99     30.0    5.537     1.83        7       10     2026  1206_RCP45_net_15May_loam.PRM
  Tot(11)       15        5     2027   1632.6    375.8   1562.4   428.00     98.0   1632.6      0.0   1430.0      0.0    211.3       85     94.8     94.8      100     0.000     0.000     0.000     0.000      128        0        0        0       15        0        0    18.345       99     30.0    5.504     1.81       26        9     2027  1206_RCP45_net_15May_loam.PRM
  Tot(12)       15        5     2028   1434.8    371.2   1559.1   430.00      4.7   1434.8      0.0   1136.0      0.0    200.8       94    111.5    111.5      100     0.000     0.000     0.000     0.000      138        0        0        0       19        0        0    18.549       99     30.0    5.565     1.79        7       10     2028  1206_RCP45_net_15May_loam.PRM
  Tot(13)       15        5     2029   1567.9    390.8   1564.4   433.00     64.2   1567.9      0.0   1291.8      0.0    204.5       90    124.0    124.0      100     0.000     0.000     0.000     0.000      130        0        0        0       16        0        0    18.191       99     30.0    5.457     1.66       28        9     2029  1206_RCP45_net_15May_loam.PRM
  Tot(14)       15        5     2030   1519.6    358.0   1557.2   435.00     11.0   1519.6      0.0   1249.9      0.0    191.5       92     99.3     99.3      100     0.000     0.000     0.000     0.000      137        0        0        0       18        0        0    18.704       99     30.0    5.611     1.93        4       10     2030  1206_RCP45_net_15May_loam.PRM
  Tot(15)       15        5     2031   1394.6    426.1   1563.2   438.00    116.9   1394.6      0.0   1169.8      0.0    227.1       84    118.6    118.6      100     0.000     0.000     0.000     0.000      128        0        0        0       15        0       -0    18.186       99     30.0    5.456     1.59       26        9     2031  1206_RCP45_net_15May_loam.PRM
  Tot(16)       15        5     2032   1521.5    416.1   1563.4   440.00     46.9   1521.5      0.0   1265.3      0.0    209.0       86    112.1    112.1      100     0.000     0.000     0.000     0.000      130        0        0        0       14        0        0    18.597       99     30.0    5.579     1.75       28        9     2032  1206_RCP45_net_15May_loam.PRM
  Tot(17)       15        5     2033   1344.7    360.6   1561.6   443.00     28.4   1344.7      0.0   1060.1      0.0    196.8       95    112.9    112.9      100     0.000     0.000     0.000     0.000      129        0        0        0       13        0        0    18.552       99     30.0    5.566     1.81       27        9     2033  1206_RCP45_net_15May_loam.PRM
  Tot(18)       15        5     2034   1162.0    393.8   1561.3   445.00      5.4   1162.0      0.0    865.5      0.0    195.5       96    113.7    113.7      100     0.000     0.000     0.000     0.000      147        0        0        0       24        0        0    18.705       99     30.0    5.611     1.83       15       10     2034  1206_RCP45_net_15May_loam.PRM
  Tot(19)       15        5     2035   1555.5    351.1   1566.0   448.00     48.4   1555.5      0.0   1288.5      0.0    198.9       94    107.3    107.3      100     0.000     0.000     0.000     0.000      126        0        0        0       13        0        0    18.435       99     30.0    5.530     1.82       24        9     2035  1206_RCP45_net_15May_loam.PRM
  Tot(20)       15        5     2036   1794.6    339.9   1561.1   450.00      8.3   1794.6      0.0   1518.2      0.0    172.7       96    106.4    106.4      100     0.000     0.000     0.000     0.000      137        0        0        0       18        0        0    18.870       99     30.0    5.661     2.04        5       10     2036  1206_RCP45_net_15May_loam.PRM
  Tot(21)       15        5     2037   1212.8    383.4   1557.7   453.00     37.7   1212.8      0.0    957.9      0.0    192.8       86    105.5    105.5      100     0.000     0.000     0.000     0.000      139        0        0        0       20        0        0    18.808       99     30.0    5.642     1.90        7       10     2037  1206_RCP45_net_15May_loam.PRM
  Tot(22)       15        5     2038   1860.0    355.2   1558.8   456.00     15.3   1860.0      0.0   1592.9      0.0    201.3       96     90.2     90.2      100     0.000     0.000     0.000     0.000      140        0        0        0       20        0        0    18.792       99     30.0    5.638     1.95        9       10     2038  1206_RCP45_net_15May_loam.PRM
  Tot(23)       15        5     2039   1722.2    306.3   1561.5   458.00      4.2   1722.2      0.0   1482.1      0.0    162.4       96     85.3     85.3      100     0.000     0.000     0.000     0.000      139        0        0        0       20        0        0    18.852       99     30.0    5.656     2.30        9       10     2039  1206_RCP45_net_15May_loam.PRM
  Tot(24)       15        5     2040   1519.1    375.6   1563.8   461.00     36.3   1519.1      0.0   1255.7      0.0    203.7       94    103.4    103.4      100     0.000     0.000     0.000     0.000      133        0        0        0       16        0        0    18.777       99     30.0    5.633     1.85        1       10     2040  1206_RCP45_net_15May_loam.PRM
  Tot(25)       15        5     2041   1419.1    403.8   1564.7   463.00    105.7   1419.1      0.0   1202.6      0.0    223.2       87    108.1    108.1      100     0.000     0.000     0.000     0.000      123        0        0        0       12        0        0    18.393       99     30.0    5.518     1.68       21        9     2041  1206_RCP45_net_15May_loam.PRM
  Tot(26)       15        5     2042   1069.0    412.1   1562.7   466.00    127.8   1069.0      0.0    885.7      0.0    201.7       75    110.2    110.2      100     0.000     0.000     0.000     0.000      124        0        0        0       12        0        0    18.535       99     30.0    5.561     1.79       22        9     2042  1206_RCP45_net_15May_loam.PRM
  Tot(27)       15        5     2043   1588.7    337.5   1562.6   469.00      0.8   1588.7      0.0   1321.5      0.0    185.8       94     94.5     94.5      100     0.000     0.000     0.000     0.000      131        0        0        0       14        0        0    18.809       99     30.0    5.643     2.03       29        9     2043  1206_RCP45_net_15May_loam.PRM
  Tot(28)       15        5     2044   1992.8    338.6   1564.6   471.00      7.5   1992.8      0.0   1745.3      0.0    172.4       93     95.8     95.8      100     0.000     0.000     0.000     0.000      133        0        0        0       16        0        0    18.923       99     30.0    5.677     2.13        1       10     2044  1206_RCP45_net_15May_loam.PRM
  Tot(29)       15        5     2045   1533.7    358.0   1559.6   474.00     22.2   1533.7      0.0   1267.6      0.0    191.1       91     92.5     92.5      100     0.000     0.000     0.000     0.000      143        0        0        0       22        0       -0    18.820       99     30.0    5.646     2.00       12       10     2045  1206_RCP45_net_15May_loam.PRM
  Tot(30)       15        5     2046   1999.6    343.6   1562.6   476.00     22.8   1999.6      0.0   1779.5      0.0    168.2       85     86.3     86.3      100     0.000     0.000     0.000     0.000      144        0        0        0       23        0        0    18.852       99     30.0    5.656     2.23       12       10     2046  1206_RCP45_net_15May_loam.PRM
  Tot(31)       15        5     2047   1184.7    317.8   1565.7   479.00     14.6   1184.7      0.0    937.7      0.0    158.5       89    101.3    101.3      100     0.000     0.000     0.000     0.000      132        0        0        0       15        0        0    18.840       99     30.0    5.652     2.19       30        9     2047  1206_RCP45_net_15May_loam.PRM
  Tot(32)       15        5     2048   1312.0    352.3   1563.0   481.00     16.2   1312.0      0.0   1049.2      0.0    173.5       90    101.3    101.3      100     0.000     0.000     0.000     0.000      139        0        0        0       20        0        0    18.976       99     30.0    5.693     2.08        7       10     2048  1206_RCP45_net_15May_loam.PRM
  Tot(33)       15        5     2049   1480.3    402.3   1563.5   484.00    126.0   1480.3      0.0   1285.2      0.0    224.4       87    103.0    103.0      100     0.000     0.000     0.000     0.000      122        0        0        0       11        0       -0    18.518       99     30.0    5.556     1.71       19        9     2049  1206_RCP45_net_15May_loam.PRM
  Tot(34)       15        5     2050   1744.0    313.8   1565.3   487.00      1.9   1744.0      0.0   1485.2      0.0    176.0       97     84.8     84.8      100     0.000     0.000     0.000     0.000      136        0        0        0       17        0        0    18.980       99     30.0    5.694     2.20        4       10     2050  1206_RCP45_net_15May_loam.PRM
  Tot(35)       15        5     2051   1788.6    319.2   1559.3   489.00     27.2   1788.6      0.0   1531.3      0.0    171.5       91     95.2     95.2      100     0.000     0.000     0.000     0.000      126        0        0        0       13        0        0    18.736       99     30.0    5.621     2.13       24        9     2051  1206_RCP45_net_15May_loam.PRM
  Tot(36)       15        5     2052   1817.6    380.6   1562.3   492.00     69.1   1817.6      0.0   1611.5      0.0    180.0       75     99.2     99.2      100     0.000     0.000     0.000     0.000      126        0        0        0       13        0        0    18.758       99     30.0    5.627     2.04       23        9     2052  1206_RCP45_net_15May_loam.PRM
  Tot(37)       15        5     2053   1668.6    340.0   1562.9   494.00     12.8   1668.6      0.0   1390.2      0.0    179.7       98    103.8    103.8      100     0.000     0.000     0.000     0.000      131        0        0        0       14        0        0    18.901       99     30.0    5.670     2.01       29        9     2053  1206_RCP45_net_15May_loam.PRM
  Tot(38)       15        5     2054   1992.2    339.9   1563.7   496.00     55.8   1992.2      0.0   1781.8      0.0    181.5       89     89.8     89.8      100     0.000     0.000     0.000     0.000      130        0        0        0       15        0        0    18.963       99     30.0    5.689     2.12       28        9     2054  1206_RCP45_net_15May_loam.PRM
  Tot(39)       15        5     2055   1359.7    352.3   1562.6   498.00     26.4   1359.7      0.0   1092.5      0.0    191.0       92    105.8    105.8      100     0.000     0.000     0.000     0.000      123        0        0        0       11        0        0    18.629       99     30.0    5.589     1.89       22        9     2055  1206_RCP45_net_15May_loam.PRM
  Tot(40)       15        5     2056   1212.5    352.4   1565.1   501.00     39.6   1212.5      0.0    957.5      0.0    181.0       91    110.2    110.2      100     0.000     0.000     0.000     0.000      131        0        0        0       15        0        0    18.911       99     30.0    5.673     1.96        1       10     2056  1206_RCP45_net_15May_loam.PRM
  Tot(41)       15        5     2057   1493.5    354.9   1563.0   503.00     23.7   1493.5      0.0   1247.5      0.0    168.8       87    104.7    104.7      100     0.000     0.000     0.000     0.000      139        0        0        0       21        0        0    18.939       99     30.0    5.682     2.09        6       10     2057  1206_RCP45_net_15May_loam.PRM
  Tot(42)       15        5     2058   1576.6    302.5   1561.2   505.00      0.0   1576.6      0.0   1313.7      0.0    163.0       99     88.5     88.5      100     0.000     0.000     0.000     0.000      135        0        0        0       17        0        0    18.899       99     30.0    5.670     2.27        4       10     2058  1206_RCP45_net_15May_loam.PRM
  Tot(43)       15        5     2059   1652.7    339.0   1560.5   507.00     10.9   1652.7      0.0   1394.3      0.0    182.3       93     88.9     88.9      100     0.000     0.000     0.000     0.000      144        0        0        0       23        0        0    18.953       99     30.0    5.686     2.11       12       10     2059  1206_RCP45_net_15May_loam.PRM
  Tot(44)       15        5     2060   2090.8    313.4   1558.0   509.00      8.8   2090.8      0.0   1858.5      0.0    163.2       95     86.3     86.3      100     0.000     0.000     0.000     0.000      131        0        0        0       15        0        0    19.025       99     30.0    5.707     2.31       29        9     2060  1206_RCP45_net_15May_loam.PRM
  Tot(45)       15        5     2061   1492.1    371.0   1564.6   511.00     72.9   1492.1      0.0   1287.3      0.0    194.3       87     96.7     96.7      100     0.000     0.000     0.000     0.000      131        0        0        0       16        0        0    18.945       99     30.0    5.683     1.96       29        9     2061  1206_RCP45_net_15May_loam.PRM
  Tot(46)       15        5     2062   1634.8    341.5   1559.0   513.00     20.9   1634.8      0.0   1389.9      0.0    175.0       96     97.9     97.9      100     0.000     0.000     0.000     0.000      133        0        0        0       17        0        0    19.031       99     30.0    5.709     2.11        1       10     2062  1206_RCP45_net_15May_loam.PRM
  Tot(47)       15        5     2063   1680.6    345.8   1564.4   514.00     22.2   1680.6      0.0   1433.7      0.0    178.6       91    102.3    102.3      100     0.000     0.000     0.000     0.000      125        0        0        0       12        0       -0    18.705       99     30.0    5.612     2.01       23        9     2063  1206_RCP45_net_15May_loam.PRM
  Tot(48)       15        5     2064   1746.5    329.5   1559.1   516.00     14.2   1746.5      0.0   1493.9      0.0    171.9       91     96.6     96.6      100     0.000     0.000     0.000     0.000      131        0        0        0       14        0       -0    19.010       99     30.0    5.703     2.14       29        9     2064  1206_RCP45_net_15May_loam.PRM
  Tot(49)       15        5     2065   1648.1    370.8   1565.8   518.00     93.0   1648.1      0.0   1457.2      0.0    195.6       78     91.6     91.6      100     0.000     0.000     0.000     0.000      122        0        0        0       11        0       -0    18.522       99     30.0    5.557     1.94       20        9     2065  1206_RCP45_net_15May_loam.PRM
  Tot(50)       15        5     2066   1621.2    320.4   1557.9   519.00     25.6   1621.2      0.0   1393.8      0.0    152.0       85     94.6     94.6      100     0.000     0.000     0.000     0.000      134        0        0        0       17        0        0    19.064       99     30.0    5.719     2.34        1       10     2066  1206_RCP45_net_15May_loam.PRM
  Tot(51)       15        5     2067   2061.7    338.6   1565.6   520.00     42.1   2061.7      0.0   1830.1      0.0    185.0       91     88.2     88.2      100     0.000     0.000     0.000     0.000      134        0        0        0       16        0        0    18.984       99     30.0    5.695     2.10        2       10     2067  1206_RCP45_net_15May_loam.PRM
  Tot(52)       15        5     2068   1222.6    359.1   1557.7   522.00     16.7   1222.6      0.0    953.3      0.0    171.3       88    113.9    113.9      100     0.000     0.000     0.000     0.000      132        0        0        0       16        0        0    18.991       99     30.0    5.697     2.01       30        9     2068  1206_RCP45_net_15May_loam.PRM
  Tot(53)       15        5     2069   1589.4    339.4   1560.1   523.00     32.6   1589.4      0.0   1355.4      0.0    170.7       92    100.3    100.3      100     0.000     0.000     0.000     0.000      135        0        0        0       18        0        0    18.981       99     30.0    5.694     2.12        4       10     2069  1206_RCP45_net_15May_loam.PRM
  Tot(54)       15        5     2070   1971.5    334.0   1558.9   524.00      4.2   1971.5      0.0   1693.4      0.0    172.5       96    108.7    108.7      100     0.000     0.000     0.000     0.000      128        0        0        0       13        0        0    18.861       99     30.0    5.658     2.02       26        9     2070  1206_RCP45_net_15May_loam.PRM
  Tot(55)       15        5     2071   1318.6    323.6   1561.5   525.00      0.0   1318.6      0.0   1042.6      0.0    176.2       98     96.0     96.0      100     0.000     0.000     0.000     0.000      129        0        0        0       14        0        0    18.933       99     30.0    5.680     2.10       27        9     2071  1206_RCP45_net_15May_loam.PRM
  Tot(56)       15        5     2072   1641.9    318.7   1563.3   527.00      5.5   1641.9      0.0   1373.3      0.0    174.2       98     95.6     95.6      100     0.000     0.000     0.000     0.000      128        0        0        0       14        0       -0    18.663       99     30.0    5.599     2.09       26        9     2072  1206_RCP45_net_15May_loam.PRM
  Tot(57)       15        5     2073   1613.9    312.2   1561.9   527.00     26.8   1613.9      0.0   1378.8      0.0    157.7       86     96.6     96.6      100     0.000     0.000     0.000     0.000      122        0        0        0       11        0        0    18.589       99     30.0    5.577     2.21       19        9     2073  1206_RCP45_net_15May_loam.PRM
  Tot(58)       15        5     2074   1601.8    309.9   1560.6   528.00      0.0   1601.8      0.0   1364.2      0.0    151.6       95     92.5     92.5      100     0.000     0.000     0.000     0.000      141        0        0        0       20        0        0    19.025       99     30.0    5.707     2.35        9       10     2074  1206_RCP45_net_15May_loam.PRM
  Tot(59)       15        5     2075   1419.6    349.5   1561.0   529.00      4.6   1419.6      0.0   1136.8      0.0    177.3       97    111.3    111.3      100     0.000     0.000     0.000     0.000      126        0        0        0       13        0       -0    18.735       99     30.0    5.620     1.96       24        9     2075  1206_RCP45_net_15May_loam.PRM
  Tot(60)       15        5     2076   1388.2    311.3   1562.4   530.00      0.0   1388.2      0.0   1128.1      0.0    158.5       99     95.8     95.8      100     0.000     0.000     0.000     0.000      134        0        0        0       16        0        0    19.051       99     30.0    5.715     2.27        2       10     2076  1206_RCP45_net_15May_loam.PRM
  Tot(61)       15        5     2077   2000.8    342.0   1563.1   530.00      0.0   2000.8      0.0   1753.7      0.0    156.9       92    100.7    100.7      100     0.000     0.000     0.000     0.000      137        0        0        0       19        0        0    19.034       99     30.0    5.710     2.24        5       10     2077  1206_RCP45_net_15May_loam.PRM
  Tot(62)       15        5     2078   1845.1    321.4   1557.5   531.00     32.2   1845.1      0.0   1623.9      0.0    164.2       90     95.5     95.5      100     0.000     0.000     0.000     0.000      127        0        0        0       13        0       -0    18.882       99     30.0    5.665     2.20       24        9     2078  1206_RCP45_net_15May_loam.PRM
  Tot(63)       15        5     2079   1527.3    330.8   1566.4   531.00     59.9   1527.3      0.0   1330.7      0.0    175.6       84     86.9     86.9      100     0.000     0.000     0.000     0.000      125        0        0        0       12        0       -0    18.906       99     30.0    5.672     2.17       22        9     2079  1206_RCP45_net_15May_loam.PRM
  Tot(64)       15        5     2080   1717.0    357.9   1562.5   531.00     65.8   1717.0      0.0   1509.6      0.0    181.3       89    101.9    101.9      100     0.000     0.000     0.000     0.000      125        0        0        0       12        0       -0    18.938       99     30.0    5.681     2.01       22        9     2080  1206_RCP45_net_15May_loam.PRM
  Tot(65)       15        5     2081   1821.0    310.0   1559.9   531.00     14.5   1821.0      0.0   1591.7      0.0    153.2       89     93.3     93.3      100     0.000     0.000     0.000     0.000      131        0        0        0       15        0        0    18.986       99     30.0    5.696     2.33       28        9     2081  1206_RCP45_net_15May_loam.PRM
  Tot(66)       15        5     2082   1683.5    365.6   1560.6   531.00     83.4   1683.5      0.0   1480.3      0.0    180.0       83    105.5    105.5      100     0.000     0.000     0.000     0.000      128        0        0        0       13        0        0    18.997       99     30.0    5.699     2.01       26        9     2082  1206_RCP45_net_15May_loam.PRM
  Tot(67)       15        5     2083   1037.6    379.3   1559.6   532.00     69.3   1037.6      0.0    820.6      0.0    183.3       82    112.6    112.6      100     0.000     0.000     0.000     0.000      118        0        0        0        9        0        0    18.625       99     30.0    5.588     1.89       15        9     2083  1206_RCP45_net_15May_loam.PRM
  Tot(68)       15        5     2084   1554.3    327.7   1565.6   532.00     17.9   1554.3      0.0   1325.4      0.0    146.4       81    106.0    106.0      100     0.000     0.000     0.000     0.000      127        0        0        0       12        0        0    18.835       99     30.0    5.650     2.25       24        9     2084  1206_RCP45_net_15May_loam.PRM
  Tot(69)       15        5     2085   1784.9    329.4   1557.8   532.00     24.6   1784.9      0.0   1537.0      0.0    172.4       91     99.0     99.0      100     0.000     0.000     0.000     0.000      125        0        0        0       13        0       -0    18.750       99     30.0    5.625     2.09       22        9     2085  1206_RCP45_net_15May_loam.PRM
  Tot(70)       15        5     2086   1455.7    343.3   1557.7   532.00     38.9   1455.7      0.0   1236.1      0.0    164.2       86     97.0     97.0      100     0.000     0.000     0.000     0.000      133        0        0        0       18        0        0    18.978       99     30.0    5.693     2.20       30        9     2086  1206_RCP45_net_15May_loam.PRM
  Tot(71)       15        5     2087   1685.7    325.4   1563.0   533.00      7.2   1685.7      0.0   1426.7      0.0    174.2       97     94.0     94.0      100     0.000     0.000     0.000     0.000      130        0        0        0       15        0        0    18.822       99     30.0    5.647     2.12       27        9     2087  1206_RCP45_net_15May_loam.PRM
  Tot(72)       15        5     2088   1360.8    326.2   1560.6   533.00     34.5   1360.8      0.0   1148.0      0.0    149.1       87     99.7     99.7      100     0.000     0.000     0.000     0.000      142        0        0        0       23        0        0    18.977       99     30.0    5.693     2.31        9       10     2088  1206_RCP45_net_15May_loam.PRM
  Tot(73)       15        5     2089   1522.4    361.2   1561.3   533.00     46.7   1522.4      0.0   1256.4      0.0    174.6       87    107.5    107.5      100     0.000     0.000     0.000     0.000      125        0        0        0       13        0        0    18.809       99     30.0    5.643     2.01       22        9     2089  1206_RCP45_net_15May_loam.PRM
  Tot(74)       15        5     2090   1898.5    325.5   1557.4   534.00      0.0   1898.5      0.0   1661.1      0.0    150.0       97     97.4     97.4      100     0.000     0.000     0.000     0.000      145        0        0        0       25        0        0    18.937      100     30.0    5.681     2.30       14       10     2090  1206_RCP45_net_15May_loam.PRM
  Tot(75)       15        5     2091   1914.3    308.6   1563.4   534.00     22.1   1914.3      0.0   1687.1      0.0    163.1       92     92.5     92.5      100     0.000     0.000     0.000     0.000      125        0        0        0       12        0       -0    18.655       99     30.0    5.596     2.20       22        9     2091  1206_RCP45_net_15May_loam.PRM
  Tot(76)       15        5     2092   1813.4    316.2   1561.8   535.00      2.1   1813.4      0.0   1576.6      0.0    145.5       97    104.1    104.1      100     0.000     0.000     0.000     0.000      139        0        0        0       20        0        0    18.998       99     30.0    5.699     2.31        7       10     2092  1206_RCP45_net_15May_loam.PRM
  Tot(77)       15        5     2093   1423.2    312.0   1565.1   535.00     21.1   1423.2      0.0   1191.7      0.0    165.2       90     88.2     88.2      100     0.000     0.000     0.000     0.000      125        0        0        0       12        0        0    18.768       99     30.0    5.630     2.24       23        9     2093  1206_RCP45_net_15May_loam.PRM
  Tot(78)       15        5     2094   1400.0    327.8   1557.2   535.00     30.7   1400.0      0.0   1180.5      0.0    164.5       89     88.6     88.6      100     0.000     0.000     0.000     0.000      134        0        0        0       18        0        0    18.906       99     30.0    5.672     2.24       30        9     2094  1206_RCP45_net_15May_loam.PRM
  Tot(79)       15        5     2095   1424.1    352.1   1558.9   536.00     22.0   1424.1      0.0   1173.6      0.0    173.4       85    103.9    103.9      100     0.000     0.000     0.000     0.000      128        0        0        0       15        0       -0    18.948       99     30.0    5.684     2.07       25        9     2095  1206_RCP45_net_15May_loam.PRM
  Tot(80)       15        5     2096   1179.6    337.5   1565.5   536.00     25.3   1179.6      0.0    960.6      0.0    162.8       86     90.6     90.6      100     0.000     0.000     0.000     0.000      128        0        0        0       15        0        0    18.768       99     30.0    5.630     2.23       25        9     2096  1206_RCP45_net_15May_loam.PRM
  Tot(81)       15        5     2097   1397.4    343.1   1565.7   537.00     47.9   1397.4      0.0   1176.0      0.0    174.2       88     98.2     98.2      100     0.000     0.000     0.000     0.000      126        0        0        0       13        0        0    18.716       99     30.0    5.615     2.08       23        9     2097  1206_RCP45_net_15May_loam.PRM
  Tot(82)       15        5     2098   1923.7    331.0   1559.9   537.00     21.6   1923.7      0.0   1680.3      0.0    170.6       91     89.1     89.1      100     0.000     0.000     0.000     0.000      130        0        0        0       16        0        0    18.842       99     30.0    5.653     2.18       28        9     2098  1206_RCP45_net_15May_loam.PRM
  Tot(83)       15        5     2099   1127.1    361.3   1557.3   538.00     34.7   1127.1      0.0    886.4      0.0    170.1       93    108.8    108.8      100     0.000     0.000     0.000     0.000      135        0        0        0       19        0        0    19.021       99     30.0    5.706     2.05        2       10     2099  1206_RCP45_net_15May_loam.PRM
