AquaCrop 6.0 (March 2017) - Output created on (date) : 28/06/2021   at (time) : 13:56:39

    RunNr     Day1   Month1    Year1     Rain      ETo       GD     CO2      Irri   Infilt   Runoff    Drain   Upflow        E     E/Ex       Tr      TrW   Tr/Trx    SaltIn   SaltOut    SaltUp  SaltProf     Cycle   SaltStr  FertStr  WeedStr  TempStr   ExpStr   StoStr  BioMass  Brelative   HI     Yield     WPet     DayN   MonthN    YearN
                                           mm       mm    °C.day    ppm        mm       mm       mm       mm       mm       mm        %       mm       mm        %    ton/ha    ton/ha    ton/ha    ton/ha      days       %        %        %        %        %        %    ton/ha        %       %    ton/ha    kg/m3
   Tot(1)       15        5     2017   1872.0    369.4   1560.2   407.00      0.0   1872.0      0.0   1588.6      0.0    186.9       95    102.6    102.6      100     0.000     0.000     0.000     0.000      146        0        0        0       23        0        0    18.498       99     30.0    5.549     1.93       15       10     2017  1206_RCP85_net_15May_sandyloam.PRM
   Tot(2)       15        5     2018   1552.8    348.5   1558.0   410.00     33.9   1552.8      0.0   1317.5      0.0    167.7       86    102.1    102.1      100     0.000     0.000     0.000     0.000      138        0        0        0       19        0        0    18.551      100     30.0    5.565     2.08        6       10     2018  1206_RCP85_net_15May_sandyloam.PRM
   Tot(3)       15        5     2019   1664.9    372.4   1564.3   413.00     56.3   1664.9      0.0   1404.8      0.0    203.6       87    111.9    111.9      100     0.000     0.000     0.000     0.000      129        0        0        0       14        0        0    18.270       99     30.0    5.481     1.74       27        9     2019  1206_RCP85_net_15May_sandyloam.PRM
   Tot(4)       15        5     2020   1555.7    349.7   1562.0   416.00     42.1   1555.7      0.0   1322.8      0.0    179.6       87     92.1     92.1      100     0.000     0.000     0.000     0.000      141        0        0        0       21        0        0    18.592       99     30.0    5.577     2.07        9       10     2020  1206_RCP85_net_15May_sandyloam.PRM
   Tot(5)       15        5     2021   1654.4    391.6   1559.2   419.00     45.9   1654.4      0.0   1432.3      0.0    189.8       84     97.7     97.7      100     0.000     0.000     0.000     0.000      145        0        0        0       23        0        0    18.631       99     30.0    5.589     1.96       14       10     2021  1206_RCP85_net_15May_sandyloam.PRM
   Tot(6)       15        5     2022   1205.3    402.9   1557.6   422.00    149.8   1205.3      0.0   1033.9      0.0    196.2       74    122.5    122.5      100     0.000     0.000     0.000     0.000      124        0        0        0       13        0        0    17.904       99     30.0    5.371     1.69       22        9     2022  1206_RCP85_net_15May_sandyloam.PRM
   Tot(7)       15        5     2023   1535.7    353.7   1558.8   425.00      1.5   1535.7      0.0   1265.6      0.0    180.3       95    102.2    102.2      100     0.000     0.000     0.000     0.000      143        0        0        0       22        0        0    18.681       99     30.0    5.604     1.99       12       10     2023  1206_RCP85_net_15May_sandyloam.PRM
   Tot(8)       15        5     2024   1939.9    343.7   1558.5   428.00     29.8   1939.9      0.0   1719.7      0.0    167.3       85     93.5     93.5      100     0.000     0.000     0.000     0.000      140        0        0        0       20        0        0    18.708       99     30.0    5.612     2.17        8       10     2024  1206_RCP85_net_15May_sandyloam.PRM
   Tot(9)       15        5     2025   1262.3    363.9   1564.4   431.00     26.0   1262.3      0.0    988.0      0.0    188.2       91    110.2    110.2      100     0.000     0.000     0.000     0.000      137        0        0        0       18        0        0    18.681       99     30.0    5.604     1.89        5       10     2025  1206_RCP85_net_15May_sandyloam.PRM
  Tot(10)       15        5     2026   1485.3    423.3   1557.4   435.00    167.1   1485.3      0.0   1315.4      0.0    212.3       77    127.9    127.9      100     0.000     0.000     0.000     0.000      122        0        0        0       12        1        0    17.915       99     30.0    5.375     1.58       19        9     2026  1206_RCP85_net_15May_sandyloam.PRM
  Tot(11)       15        5     2027   1411.9    378.3   1563.8   438.00     31.5   1411.9      0.0   1153.0      0.0    186.4       81    105.9    105.9      100     0.000     0.000     0.000     0.000      137        0        0        0       19        0        0    18.655       99     30.0    5.597     1.93        5       10     2027  1206_RCP85_net_15May_sandyloam.PRM
  Tot(12)       15        5     2028   1823.7    358.8   1560.8   442.00     53.6   1823.7      0.0   1605.6      0.0    189.4       84     84.8     84.8      100     0.000     0.000     0.000     0.000      137        0        0        0       19        0        0    18.732       99     30.0    5.620     2.06        5       10     2028  1206_RCP85_net_15May_sandyloam.PRM
  Tot(13)       15        5     2029   1450.2    338.9   1565.5   445.00     22.7   1450.2      0.0   1192.2      0.0    181.3       93    103.8    103.8      100     0.000     0.000     0.000     0.000      129        0        0        0       14        0        0    18.674       99     30.0    5.602     1.98       28        9     2029  1206_RCP85_net_15May_sandyloam.PRM
  Tot(14)       15        5     2030   1828.0    353.4   1565.3   449.00     29.0   1828.0      0.0   1558.1      0.0    200.2       91     97.4     97.4      100     0.000     0.000     0.000     0.000      127        0        0        0       12        0       -0    18.712       99     30.0    5.614     1.90       25        9     2030  1206_RCP85_net_15May_sandyloam.PRM
  Tot(15)       15        5     2031   1952.4    404.4   1561.4   452.00     41.6   1952.4      0.0   1715.1      0.0    188.0       80    108.7    108.7      100     0.000     0.000     0.000     0.000      133        0        0        0       16        0        0    18.796       99     30.0    5.639     1.91        1       10     2031  1206_RCP85_net_15May_sandyloam.PRM
  Tot(16)       15        5     2032   1577.2    377.0   1564.8   456.00     42.2   1577.2      0.0   1335.3      0.0    188.1       83     99.7     99.7      100     0.000     0.000     0.000     0.000      133        0        0        0       16        0        0    18.698       99     30.0    5.609     1.96       30        9     2032  1206_RCP85_net_15May_sandyloam.PRM
  Tot(17)       15        5     2033   1370.8    377.5   1558.6   460.00     50.0   1370.8      0.0   1119.2      0.0    201.4       88    102.2    102.2      100     0.000     0.000     0.000     0.000      132        0        0        0       17        0        0    18.769       99     30.0    5.631     1.86       30        9     2033  1206_RCP85_net_15May_sandyloam.PRM
  Tot(18)       15        5     2034   2345.7    328.1   1560.5   464.00     18.9   2345.7      0.0   2091.1      0.0    174.9       95    104.5    104.5      100     0.000     0.000     0.000     0.000      139        0        0        0       21        0       -0    18.618       99     30.0    5.585     2.01        7       10     2034  1206_RCP85_net_15May_sandyloam.PRM
  Tot(19)       15        5     2035   1380.9    384.3   1557.1   468.00     22.6   1380.9      0.0   1102.7      0.0    188.9       86    104.3    104.3      100     0.000     0.000     0.000     0.000      139        0        0        0       19        0        0    18.859       99     30.0    5.658     1.93        6       10     2035  1206_RCP85_net_15May_sandyloam.PRM
  Tot(20)       15        5     2036   1646.4    321.5   1557.4   472.00      6.1   1646.4      0.0   1395.1      0.0    162.3       94     98.7     98.7      100     0.000     0.000     0.000     0.000      132        0        0        0       15        0       -0    18.841       99     30.0    5.652     2.17       29        9     2036  1206_RCP85_net_15May_sandyloam.PRM
  Tot(21)       15        5     2037   2112.3    332.5   1558.0   476.00      2.1   2112.3      0.0   1846.0      0.0    166.8       97    104.1    104.1      100     0.000     0.000     0.000     0.000      143        0        0        0       21        0        0    19.017       99     30.0    5.705     2.12       11       10     2037  1206_RCP85_net_15May_sandyloam.PRM
  Tot(22)       15        5     2038   1751.6    335.5   1557.4   481.00     21.9   1751.6      0.0   1510.9      0.0    166.9       85     98.0     98.0      100     0.000     0.000     0.000     0.000      139        0        0        0       20        0        0    18.756       99     30.0    5.627     2.12        7       10     2038  1206_RCP85_net_15May_sandyloam.PRM
  Tot(23)       15        5     2039   1296.0    369.0   1563.3   485.00     62.5   1296.0      0.0   1056.0      0.0    193.9       87    109.5    109.5      100     0.000     0.000     0.000     0.000      125        0        0        0       12        0        0    18.600       99     30.0    5.580     1.85       24        9     2039  1206_RCP85_net_15May_sandyloam.PRM
  Tot(24)       15        5     2040   1588.7    338.8   1558.3   489.00     18.7   1588.7      0.0   1358.2      0.0    173.6       91     87.3     87.3      100     0.000     0.000     0.000     0.000      138        0        0        0       19        0        0    19.009       99     30.0    5.703     2.19        5       10     2040  1206_RCP85_net_15May_sandyloam.PRM
  Tot(25)       15        5     2041   1464.3    364.7   1564.3   494.00     38.2   1464.3      0.0   1220.7      0.0    192.3       89    102.1    102.1      100     0.000     0.000     0.000     0.000      127        0        0        0       12        0        0    18.866       99     30.0    5.660     1.93       25        9     2041  1206_RCP85_net_15May_sandyloam.PRM
  Tot(26)       15        5     2042   1010.0    359.1   1558.1   499.00     32.0   1010.0      0.0    761.7      0.0    187.9       85    100.4    100.4      100     0.000     0.000     0.000     0.000      130        0        0        0       15        0        0    18.803       99     30.0    5.641     1.97       28        9     2042  1206_RCP85_net_15May_sandyloam.PRM
  Tot(27)       15        5     2043   2060.5    319.6   1559.4   504.00      8.3   2060.5      0.0   1810.8      0.0    167.6       95     90.4     90.4      100     0.000     0.000     0.000     0.000      140        0        0        0       20        0        0    18.968      100     30.0    5.690     2.22        8       10     2043  1206_RCP85_net_15May_sandyloam.PRM
  Tot(28)       15        5     2044   1836.7    320.5   1562.9   508.00      6.1   1836.7      0.0   1599.7      0.0    158.6       93     93.9     93.9      100     0.000     0.000     0.000     0.000      139        0        0        0       19        0        0    19.149       99     30.0    5.745     2.29        7       10     2044  1206_RCP85_net_15May_sandyloam.PRM
  Tot(29)       15        5     2045   1201.3    344.4   1557.3   513.00     22.9   1201.3      0.0    955.7      0.0    162.7       87    113.9    113.9      100     0.000     0.000     0.000     0.000      130        0        0        0       14        0        0    18.893       99     30.0    5.668     2.05       26        9     2045  1206_RCP85_net_15May_sandyloam.PRM
  Tot(30)       15        5     2046   1635.3    359.6   1558.9   519.00     89.0   1635.3      0.0   1451.1      0.0    180.4       78     97.7     97.7      100     0.000     0.000     0.000     0.000      122        0        0        0       12        0        0    18.572       99     30.0    5.571     2.02       19        9     2046  1206_RCP85_net_15May_sandyloam.PRM
  Tot(31)       15        5     2047   1478.5    337.8   1563.7   524.00     51.3   1478.5      0.0   1254.9      0.0    180.7       85     95.0     95.0      100     0.000     0.000     0.000     0.000      126        0        0        0       14        0        0    18.676       99     30.0    5.603     2.05       24        9     2047  1206_RCP85_net_15May_sandyloam.PRM
  Tot(32)       15        5     2048   1731.9    303.1   1560.4   529.00      0.0   1731.9      0.0   1488.4      0.0    158.8       94     85.8     85.8      100     0.000     0.000     0.000     0.000      140        0        0        0       21        0       -0    19.167       99     30.0    5.750     2.36        8       10     2048  1206_RCP85_net_15May_sandyloam.PRM
  Tot(33)       15        5     2049   1439.1    312.7   1561.5   535.00      0.9   1439.1      0.0   1189.7      0.0    169.7       96     90.0     90.0      100     0.000     0.000     0.000     0.000      132        0        0        0       15        0        0    19.084       99     30.0    5.725     2.22       30        9     2049  1206_RCP85_net_15May_sandyloam.PRM
  Tot(34)       15        5     2050   2185.4    349.8   1557.6   541.00     27.1   2185.4      0.0   1923.5      0.0    182.8       91    105.1    105.1      100     0.000     0.000     0.000     0.000      129        0        0        0       14        0        0    18.740       99     30.0    5.622     1.96       27        9     2050  1206_RCP85_net_15May_sandyloam.PRM
  Tot(35)       15        5     2051   1070.6    359.0   1566.4   546.00     93.6   1070.6      0.0    875.9      0.0    191.2       83     98.6     98.6      100     0.000     0.000     0.000     0.000      124        0        0        0       12        0        0    18.737       99     30.0    5.621     1.95       21        9     2051  1206_RCP85_net_15May_sandyloam.PRM
  Tot(36)       15        5     2052   1738.6    377.6   1558.5   552.00    104.5   1738.6      0.0   1542.8      0.0    204.5       85    105.6    105.6      100     0.000     0.000     0.000     0.000      120        0        0        0       10        0        0    18.579       99     30.0    5.574     1.81       18        9     2052  1206_RCP85_net_15May_sandyloam.PRM
  Tot(37)       15        5     2053   1175.4    348.0   1558.3   558.00     24.8   1175.4      0.0    908.2      0.0    184.3       89     95.8     95.8      100     0.000     0.000     0.000     0.000      125        0        0        0       11        0        0    18.910       99     30.0    5.673     2.04       23        9     2053  1206_RCP85_net_15May_sandyloam.PRM
  Tot(38)       15        5     2054   1849.9    311.8   1560.0   564.00      6.4   1849.9      0.0   1608.7      0.0    169.5       92     84.6     84.6      100     0.000     0.000     0.000     0.000      130        0        0        0       15        0        0    19.068       99     30.0    5.721     2.26       28        9     2054  1206_RCP85_net_15May_sandyloam.PRM
  Tot(39)       15        5     2055   1180.0    313.0   1559.5   571.00     39.4   1180.0      0.0    949.6      0.0    171.7       92     97.6     97.6      100     0.000     0.000     0.000     0.000      122        0        0        0       11        0        0    18.672       99     30.0    5.602     2.09       19        9     2055  1206_RCP85_net_15May_sandyloam.PRM
  Tot(40)       15        5     2056   1769.7    324.0   1565.1   577.00     30.4   1769.7      0.0   1547.2      0.0    169.7       91     91.6     91.6      100     0.000     0.000     0.000     0.000      128        0        0        0       13        0        0    19.015       99     30.0    5.705     2.20       25        9     2056  1206_RCP85_net_15May_sandyloam.PRM
  Tot(41)       15        5     2057   1804.3    297.8   1559.6   583.00     37.9   1804.3      0.0   1595.0      0.0    156.9       89     89.0     89.0      100     0.000     0.000     0.000     0.000      121        0        0        0       10        0       -0    18.795       99     30.0    5.639     2.30       18        9     2057  1206_RCP85_net_15May_sandyloam.PRM
  Tot(42)       15        5     2058   1685.3    323.0   1560.4   590.00      6.2   1685.3      0.0   1436.1      0.0    162.2       95    100.3    100.3      100     0.000     0.000     0.000     0.000      128        0        0        0       13        0        0    18.961       99     30.0    5.688     2.19       26        9     2058  1206_RCP85_net_15May_sandyloam.PRM
  Tot(43)       15        5     2059   2021.6    336.3   1566.7   597.00     21.0   2021.6      0.0   1796.5      0.0    177.0       89     83.1     83.1      100     0.000     0.000     0.000     0.000      123        0        0        0       11        0       -0    18.945       99     30.0    5.683     2.19       20        9     2059  1206_RCP85_net_15May_sandyloam.PRM
  Tot(44)       15        5     2060   1996.6    333.9   1565.2   604.00     71.9   1996.6      0.0   1809.6      0.0    175.8       80     82.1     82.1      100     0.000     0.000     0.000     0.000      125        0        0        0       13        0        0    18.927       99     30.0    5.678     2.21       23        9     2060  1206_RCP85_net_15May_sandyloam.PRM
  Tot(45)       15        5     2061   1466.4    327.6   1560.2   611.00     45.7   1466.4      0.0   1253.2      0.0    175.4       89     88.1     88.1      100     0.000     0.000     0.000     0.000      125        0        0        0       13        0        0    18.970       99     30.0    5.691     2.18       23        9     2061  1206_RCP85_net_15May_sandyloam.PRM
  Tot(46)       15        5     2062   1495.9    320.4   1557.7   618.00     28.8   1495.9      0.0   1256.6      0.0    176.7       89     91.0     91.0      100     0.000     0.000     0.000     0.000      122        0        0        0       11        0        0    18.932       99     30.0    5.679     2.14       20        9     2062  1206_RCP85_net_15May_sandyloam.PRM
  Tot(47)       15        5     2063   1644.9    295.2   1565.5   625.00      0.0   1644.9      0.0   1396.2      0.0    150.6       99     93.4     93.4      100     0.000     0.000     0.000     0.000      126        0        0        0       12        0       -0    18.963       99     30.0    5.689     2.34       25        9     2063  1206_RCP85_net_15May_sandyloam.PRM
  Tot(48)       15        5     2064   1337.5    345.2   1559.1   632.00     65.3   1337.5      0.0   1114.2      0.0    176.4       85     99.4     99.4      100     0.000     0.000     0.000     0.000      117        0        0        0        9        0        0    18.825       99     30.0    5.648     2.05       15        9     2064  1206_RCP85_net_15May_sandyloam.PRM
  Tot(49)       15        5     2065   1711.9    288.5   1566.0   639.00     15.3   1711.9      0.0   1488.4      0.0    153.2       92     85.1     85.1      100     0.000     0.000     0.000     0.000      130        0        0        0       14        0       -0    18.986       99     30.0    5.696     2.40       28        9     2065  1206_RCP85_net_15May_sandyloam.PRM
  Tot(50)       15        5     2066   1864.9    325.0   1559.2   647.00     31.3   1864.9      0.0   1642.4      0.0    168.3       89     93.0     93.0      100     0.000     0.000     0.000     0.000      121        0        0        0       11        0       -0    18.960       99     30.0    5.688     2.19       19        9     2066  1206_RCP85_net_15May_sandyloam.PRM
  Tot(51)       15        5     2067   1909.7    313.3   1558.8   654.00     11.8   1909.7      0.0   1674.5      0.0    158.6       89     91.8     91.8      100     0.000     0.000     0.000     0.000      116        0        0        0        8        0        0    18.799       99     30.0    5.640     2.28       14        9     2067  1206_RCP85_net_15May_sandyloam.PRM
  Tot(52)       15        5     2068   1750.3    303.2   1558.2   662.00     21.9   1750.3      0.0   1525.0      0.0    154.4       94     95.7     95.7      100     0.000     0.000     0.000     0.000      124        0        0        0       12        0        0    19.051       99     30.0    5.715     2.29       22        9     2068  1206_RCP85_net_15May_sandyloam.PRM
  Tot(53)       15        5     2069   1670.2    298.6   1560.5   669.00     18.1   1670.2      0.0   1432.7      0.0    154.5       93     98.0     98.0      100     0.000     0.000     0.000     0.000      118        0        0        0        9        0       -0    18.739       99     30.0    5.622     2.24       16        9     2069  1206_RCP85_net_15May_sandyloam.PRM
  Tot(54)       15        5     2070   1773.5    296.2   1559.2   677.00      0.0   1773.5      0.0   1525.3      0.0    155.7       97     92.3     92.3      100     0.000     0.000     0.000     0.000      120        0        0        0        9        0       -0    19.013       99     30.0    5.704     2.33       18        9     2070  1206_RCP85_net_15May_sandyloam.PRM
  Tot(55)       15        5     2071   1698.8    282.6   1564.3   685.00      7.6   1698.8      0.0   1478.7      0.0    146.5       95     85.3     85.3      100     0.000     0.000     0.000     0.000      125        0        0        0       11        0        0    19.080       99     30.0    5.724     2.48       23        9     2071  1206_RCP85_net_15May_sandyloam.PRM
  Tot(56)       15        5     2072   1848.7    284.7   1564.4   693.00      0.2   1848.7      0.0   1625.1      0.0    147.8       97     81.9     81.9      100     0.000     0.000     0.000     0.000      120        0        0        0        9        0        0    18.977       99     30.0    5.693     2.51       18        9     2072  1206_RCP85_net_15May_sandyloam.PRM
  Tot(57)       15        5     2073   1228.5    348.9   1561.9   701.00    102.2   1228.5      0.0   1053.2      0.0    185.8       84     92.7     92.7      100     0.000     0.000     0.000     0.000      113        0        0        0        8        0        0    18.490       99     30.0    5.547     2.01       10        9     2073  1206_RCP85_net_15May_sandyloam.PRM
  Tot(58)       15        5     2074   1363.5    350.5   1566.8   709.00      6.9   1363.5      0.0   1080.7      0.0    193.2       96    100.5    100.5      100     0.000     0.000     0.000     0.000      117        0        0        0        8        0        0    18.738       99     30.0    5.622     1.93       15        9     2074  1206_RCP85_net_15May_sandyloam.PRM
  Tot(59)       15        5     2075   1980.0    336.6   1562.8   717.00     39.7   1980.0      0.0   1727.2      0.0    182.3       92    106.8    106.8      100     0.000     0.000     0.000     0.000      112        0        0        0        7        0        0    18.503       99     30.0    5.551     1.93       10        9     2075  1206_RCP85_net_15May_sandyloam.PRM
  Tot(60)       15        5     2076   1921.0    250.4   1559.7   725.00      0.0   1921.0      0.0   1717.4      0.0    127.7       98     78.0     78.0      100     0.000     0.000     0.000     0.000      130        0        0        0       14        0        0    19.279       99     30.0    5.784     2.84       28        9     2076  1206_RCP85_net_15May_sandyloam.PRM
  Tot(61)       15        5     2077   1427.0    284.7   1566.6   733.00     26.3   1427.0      0.0   1231.3      0.0    146.7       88     83.2     83.2      100     0.000     0.000     0.000     0.000      119        0        0        0        9        0        0    18.698       99     30.0    5.609     2.46       17        9     2077  1206_RCP85_net_15May_sandyloam.PRM
  Tot(62)       15        5     2078   2225.7    264.1   1560.6   742.00      7.9   2225.7      0.0   2034.0      0.0    127.9       84     77.9     77.9      100     0.000     0.000     0.000     0.000      119        0        0        0        9        0        0    18.795       99     30.0    5.638     2.77       16        9     2078  1206_RCP85_net_15May_sandyloam.PRM
  Tot(63)       15        5     2079   1401.6    338.0   1568.2   750.00     35.7   1401.6      0.0   1166.3      0.0    158.6       82     97.5     97.5      100     0.000     0.000     0.000     0.000      117        0        0        0        8        0        0    18.597       99     30.0    5.579     2.19       14        9     2079  1206_RCP85_net_15May_sandyloam.PRM
  Tot(64)       15        5     2080   1755.9    304.3   1560.0   758.00     25.4   1755.9      0.0   1543.0      0.0    157.3       90     92.1     92.1      100     0.000     0.000     0.000     0.000      112        0        0        0        6        0        0    18.517       99     30.0    5.555     2.24       10        9     2080  1206_RCP85_net_15May_sandyloam.PRM
  Tot(65)       15        5     2081   1921.8    270.9   1558.7   767.00      3.8   1921.8      0.0   1694.7      0.0    144.1       97     84.6     84.6      100     0.000     0.000     0.000     0.000      117        0        0        0        8        0        0    18.695       99     30.0    5.608     2.46       14        9     2081  1206_RCP85_net_15May_sandyloam.PRM
  Tot(66)       15        5     2082   1703.7    274.1   1566.2   775.00      2.8   1703.7      0.0   1493.4      0.0    130.1       94     88.7     88.7      100     0.000     0.000     0.000     0.000      123        0        0        0       10        0        0    18.986       99     30.0    5.696     2.62       22        9     2082  1206_RCP85_net_15May_sandyloam.PRM
  Tot(67)       15        5     2083   1391.9    337.9   1557.8   784.00     43.7   1391.9      0.0   1171.4      0.0    181.3       87     93.9     93.9      100     0.000     0.000     0.000     0.000      110        0        0        0        6        0       -0    18.270       99     30.0    5.481     2.00        7        9     2083  1206_RCP85_net_15May_sandyloam.PRM
  Tot(68)       15        5     2084   1766.2    294.6   1563.7   792.00      8.1   1766.2      0.0   1519.2      0.0    171.6       94     86.9     86.9      100     0.000     0.000     0.000     0.000      113        0        0        0        7        0       -0    18.305       99     30.0    5.492     2.15       10        9     2084  1206_RCP85_net_15May_sandyloam.PRM
  Tot(69)       15        5     2085   1767.2    288.0   1568.3   801.00      9.2   1767.2      0.0   1571.8      0.0    127.1       78     83.0     83.0      100     0.000     0.000     0.000     0.000      120        0        0        0       10        0        0    18.759       99     30.0    5.628     2.72       17        9     2085  1206_RCP85_net_15May_sandyloam.PRM
  Tot(70)       15        5     2086   1202.6    279.0   1566.5   810.00     15.5   1202.6      0.0    986.4      0.0    151.7       90     78.9     78.9      100     0.000     0.000     0.000     0.000      112        0        0        0        6        0        0    18.325       99     30.0    5.498     2.40       10        9     2086  1206_RCP85_net_15May_sandyloam.PRM
  Tot(71)       15        5     2087   1187.5    283.8   1568.2   818.00     30.3   1187.5      0.0    973.1      0.0    161.3       92     82.4     82.4      100     0.000     0.000     0.000     0.000      109        0        0        0        5        0        0    18.073       99     30.0    5.422     2.24        6        9     2087  1206_RCP85_net_15May_sandyloam.PRM
  Tot(72)       15        5     2088   2082.8    291.7   1564.7   827.00     17.9   2082.8      0.0   1859.1      0.0    158.2       94     82.1     82.1      100     0.000     0.000     0.000     0.000      112        0        0        0        6        0        0    18.468       99     30.0    5.540     2.32       11        9     2088  1206_RCP85_net_15May_sandyloam.PRM
  Tot(73)       15        5     2089   1526.9    257.1   1562.6   836.00      0.0   1526.9      0.0   1297.4      0.0    135.7       97     80.9     80.9      100     0.000     0.000     0.000     0.000      113        0        0        0        6        0        0    18.369       99     30.0    5.511     2.57       10        9     2089  1206_RCP85_net_15May_sandyloam.PRM
  Tot(74)       15        5     2090   1461.9    281.8   1559.1   845.00     23.3   1461.9      0.0   1233.7      0.0    141.5       84     82.0     82.0      100     0.000     0.000     0.000     0.000      112        0        0        0        6        0        0    18.582       99     30.0    5.575     2.51        9        9     2090  1206_RCP85_net_15May_sandyloam.PRM
  Tot(75)       15        5     2091   1483.7    300.1   1559.6   854.00     78.0   1483.7      0.0   1318.8      0.0    167.3       82     77.1     77.1      100     0.000     0.000     0.000     0.000      106        0        0        0        5        0        0    18.035       99     30.0    5.410     2.24        3        9     2091  1206_RCP85_net_15May_sandyloam.PRM
  Tot(76)       15        5     2092   1811.2    307.4   1557.4   863.00     42.8   1811.2      0.0   1615.8      0.0    153.8       87     87.5     87.5      100     0.000     0.000     0.000     0.000      113        0        0        0        6        0        0    18.318       99     30.0    5.495     2.28        9        9     2092  1206_RCP85_net_15May_sandyloam.PRM
  Tot(77)       15        5     2093   1452.6    264.0   1568.7   872.00      5.7   1452.6      0.0   1234.9      0.0    135.0       97     89.8     89.8      100     0.000     0.000     0.000     0.000      109        0        0        0        5        0       -0    18.072       99     30.0    5.421     2.44        6        9     2093  1206_RCP85_net_15May_sandyloam.PRM
  Tot(78)       15        5     2094   1426.8    252.3   1565.3   881.00      1.2   1426.8      0.0   1218.2      0.0    133.6       97     77.3     77.3      100     0.000     0.000     0.000     0.000      117        0        0        0        9        0        0    18.463       99     30.0    5.539     2.65       14        9     2094  1206_RCP85_net_15May_sandyloam.PRM
  Tot(79)       15        5     2095   1743.4    255.8   1560.1   890.00     21.5   1743.4      0.0   1549.7      0.0    139.5       94     76.4     76.4      100     0.000     0.000     0.000     0.000      112        0        0        0        6        0       -0    18.362       99     30.0    5.509     2.58        9        9     2095  1206_RCP85_net_15May_sandyloam.PRM
  Tot(80)       15        5     2096   1382.5    307.2   1565.4   899.00     33.0   1382.5      0.0   1181.8      0.0    155.9       83     84.5     84.5      100     0.000     0.000     0.000     0.000      110        0        0        0        5        0        0    18.095       99     30.0    5.428     2.28        8        9     2096  1206_RCP85_net_15May_sandyloam.PRM
  Tot(81)       15        5     2097   1605.5    253.2   1565.0   908.00      3.5   1605.5      0.0   1401.6      0.0    128.9       97     79.4     79.4      100     0.000     0.000     0.000     0.000      113        0        0        0        6        0        0    18.291       99     30.0    5.487     2.67       10        9     2097  1206_RCP85_net_15May_sandyloam.PRM
  Tot(82)       15        5     2098   1506.4    250.4   1564.0   917.00     16.5   1506.4      0.0   1301.8      0.0    129.7       93     78.9     78.9      100     0.000     0.000     0.000     0.000      111        0        0        0        6        0        0    18.178       99     30.0    5.453     2.62        9        9     2098  1206_RCP85_net_15May_sandyloam.PRM
  Tot(83)       15        5     2099   2115.5    266.4   1566.9   927.00      0.0   2115.5      0.0   1895.3      0.0    132.7       98     88.2     88.2      100     0.000     0.000     0.000     0.000      112        0        0        0        6        0        0    17.941       99     30.0    5.382     2.46        9        9     2099  1206_RCP85_net_15May_sandyloam.PRM
