AquaCrop 6.0 (March 2017) - Output created on (date) : 07/06/2021   at (time) : 19:48:17

    RunNr     Day1   Month1    Year1     Rain      ETo       GD     CO2      Irri   Infilt   Runoff    Drain   Upflow        E     E/Ex       Tr      TrW   Tr/Trx    SaltIn   SaltOut    SaltUp  SaltProf     Cycle   SaltStr  FertStr  WeedStr  TempStr   ExpStr   StoStr  BioMass  Brelative   HI     Yield     WPet     DayN   MonthN    YearN
                                           mm       mm    °C.day    ppm        mm       mm       mm       mm       mm       mm        %       mm       mm        %    ton/ha    ton/ha    ton/ha    ton/ha      days       %        %        %        %        %        %    ton/ha        %       %    ton/ha    kg/m3
   Tot(1)       15        4     2017   1869.6    386.9   1563.6   407.00      0.0   1869.6      0.0   1574.7      0.0    187.6       75    106.5    106.5      100     0.000     0.000     0.000     0.000      140        0        0        0       19        0        0    18.456       99     30.0    5.537     1.89        8        9     2017  1206_RCP85_rainfed_15April_loam.PRM
   Tot(2)       15        4     2018   1498.0    416.5   1564.9   410.00      0.0   1498.0      0.0   1282.8      0.0    115.4       39     97.4     97.4      100     0.000     0.000     0.000     0.000      133        0        0        0       17        6        0    16.822       92     30.0    5.047     2.40        4        9     2018  1206_RCP85_rainfed_15April_loam.PRM
   Tot(3)       15        4     2019   1563.0    463.4   1563.2   413.00      0.0   1563.0      0.0   1252.6      0.0    154.0       50    151.9    151.9       99     0.000     0.000     0.000     0.000      123        0        0        0       11        7        1    16.297       91     30.0    4.889     1.61       24        8     2019  1206_RCP85_rainfed_15April_loam.PRM
   Tot(4)       15        4     2020   1492.8    388.8   1558.2   416.00      0.0   1492.8      0.0   1230.7      0.0    161.7       60    103.1    103.1      100     0.000     0.000     0.000     0.000      134        0        0        0       17        4       -0    17.559       95     30.0    5.268     2.01        3        9     2020  1206_RCP85_rainfed_15April_loam.PRM
   Tot(5)       15        4     2021   1673.0    415.2   1564.3   419.00      0.0   1673.0      0.0   1415.4      0.0    159.4       54    100.4    100.4      100     0.000     0.000     0.000     0.000      137        0        0        0       18        4        0    17.449       94     30.0    5.235     2.03        7        9     2021  1206_RCP85_rainfed_15April_loam.PRM
   Tot(6)       15        4     2022    935.0    505.5   1562.6   422.00      0.0    935.0      0.0    612.1      0.0    147.2       39    128.1    128.1       92     0.000     0.000     0.000     0.000      120        0        0        0       11       38        2    11.223       65     30.6    3.431     1.25       20        8     2022  1206_RCP85_rainfed_15April_loam.PRM
   Tot(7)       15        4     2023   1433.3    419.0   1558.7   425.00      0.0   1433.3      0.0   1168.3      0.0    138.7       46     94.6     94.6      100     0.000     0.000     0.000     0.000      135        0        0        0       17        5        0    17.260       93     30.0    5.178     2.23        6        9     2023  1206_RCP85_rainfed_15April_loam.PRM
   Tot(8)       15        4     2024   1812.9    396.5   1557.1   428.00      0.0   1812.9      0.0   1544.1      0.0    127.6       46    107.1    107.1      100     0.000     0.000     0.000     0.000      130        0        0        0       14        3        0    17.810       95     30.0    5.343     2.28       29        8     2024  1206_RCP85_rainfed_15April_loam.PRM
   Tot(9)       15        4     2025   1138.5    420.6   1565.3   431.00      0.0   1138.5      0.0    843.6      0.0    169.4       63    123.1    123.1      100     0.000     0.000     0.000     0.000      130        0        0        0       14        3       -0    17.834       96     30.0    5.350     1.84       31        8     2025  1206_RCP85_rainfed_15April_loam.PRM
  Tot(10)       15        4     2026   1445.8    479.1   1557.7   435.00      0.0   1445.8      0.0   1108.8      0.0    195.0       60    131.0    131.0       87     0.000     0.000     0.000     0.000      120        0        0        0       12       34        5    11.427       67     30.4    3.479     1.07       23        8     2026  1206_RCP85_rainfed_15April_loam.PRM
  Tot(11)       15        4     2027   1305.4    457.0   1560.2   438.00      0.0   1305.4      0.0   1022.8      0.0    138.7       45    125.8    125.8      100     0.000     0.000     0.000     0.000      128        0        0        0       14        4        0    17.425       94     30.0    5.227     2.00       28        8     2027  1206_RCP85_rainfed_15April_loam.PRM
  Tot(12)       15        4     2028   1752.2    399.7   1562.3   442.00      0.0   1752.2      0.0   1464.5      0.0    155.4       58    124.6    124.6      100     0.000     0.000     0.000     0.000      130        0        0        0       15        3        0    17.677       96     30.0    5.303     1.90       30        8     2028  1206_RCP85_rainfed_15April_loam.PRM
  Tot(13)       15        4     2029   1326.9    397.9   1558.3   445.00      0.0   1326.9      0.0   1016.5      0.0    176.4       69    126.4    126.4      100     0.000     0.000     0.000     0.000      126        0        0        0       13        2        0    18.084       98     30.0    5.425     1.80       27        8     2029  1206_RCP85_rainfed_15April_loam.PRM
  Tot(14)       15        4     2030   1672.3    416.8   1560.9   449.00      0.0   1672.3      0.0   1320.3      0.0    156.7       56    129.8    129.8      100     0.000     0.000     0.000     0.000      127        0        0        0       13        3        0    17.710       96     30.0    5.313     1.86       27        8     2030  1206_RCP85_rainfed_15April_loam.PRM
  Tot(15)       15        4     2031   1953.6    443.7   1560.2   452.00      0.0   1953.6      0.0   1689.4      0.0    155.8       51    114.9    114.9       99     0.000     0.000     0.000     0.000      131        0        0        0       15        5        1    17.084       93     30.0    5.125     1.91        1        9     2031  1206_RCP85_rainfed_15April_loam.PRM
  Tot(16)       15        4     2032   1441.6    427.0   1558.3   456.00      0.0   1441.6      0.0   1193.0      0.0    128.4       43    116.3    116.3      100     0.000     0.000     0.000     0.000      124        0        0        0       13        8        0    16.487       90     30.0    4.946     2.04       24        8     2032  1206_RCP85_rainfed_15April_loam.PRM
  Tot(17)       15        4     2033   1313.0    433.9   1558.2   460.00      0.0   1313.0      0.0   1041.8      0.0    141.6       47    117.8    117.8      100     0.000     0.000     0.000     0.000      126        0        0        0       13        6        0    17.042       93     30.0    5.113     1.97       26        8     2033  1206_RCP85_rainfed_15April_loam.PRM
  Tot(18)       15        4     2034   2100.6    415.0   1567.1   464.00      0.0   2100.6      0.0   1750.7      0.0    155.7       56    115.0    115.0      100     0.000     0.000     0.000     0.000      127        0        0        0       13        4        0    17.185       93     30.0    5.156     1.91       28        8     2034  1206_RCP85_rainfed_15April_loam.PRM
  Tot(19)       15        4     2035   1413.0    410.5   1558.3   468.00      0.0   1413.0      0.0   1125.7      0.0    178.2       67    115.2    115.2      100     0.000     0.000     0.000     0.000      134        0        0        0       16        2        0    18.241       97     30.0    5.472     1.87        4        9     2035  1206_RCP85_rainfed_15April_loam.PRM
  Tot(20)       15        4     2036   1574.1    357.3   1567.9   472.00      0.0   1574.1      0.0   1292.9      0.0    163.8       72    112.2    112.2      100     0.000     0.000     0.000     0.000      130        0        0        0       14        2        0    18.184       98     30.0    5.455     1.99       30        8     2036  1206_RCP85_rainfed_15April_loam.PRM
  Tot(21)       15        4     2037   2054.0    397.4   1564.1   476.00      0.0   2054.0      0.0   1789.3      0.0    138.0       50     89.9     89.9       99     0.000     0.000     0.000     0.000      133        0        0        0       16        5        0    17.348       91     30.0    5.204     2.30        3        9     2037  1206_RCP85_rainfed_15April_loam.PRM
  Tot(22)       15        4     2038   1701.7    386.1   1561.7   481.00      0.0   1701.7      0.0   1435.5      0.0    157.2       60    104.4    104.4      100     0.000     0.000     0.000     0.000      133        0        0        0       16        3        0    17.995       96     30.0    5.399     2.08        2        9     2038  1206_RCP85_rainfed_15April_loam.PRM
  Tot(23)       15        4     2039   1231.2    421.6   1566.3   485.00      0.0   1231.2      0.0    904.6      0.0    167.8       66    154.7    154.7      100     0.000     0.000     0.000     0.000      121        0        0        0       11        2        0    17.613       98     30.0    5.285     1.64       21        8     2039  1206_RCP85_rainfed_15April_loam.PRM
  Tot(24)       15        4     2040   1496.8    406.4   1560.6   489.00      0.0   1496.8      0.0   1238.6      0.0    116.8       39     96.9     96.9      100     0.000     0.000     0.000     0.000      127        0        0        0       14        8        0    16.497       88     30.0    4.949     2.32       27        8     2040  1206_RCP85_rainfed_15April_loam.PRM
  Tot(25)       15        4     2041   1417.9    393.3   1566.0   494.00      0.0   1417.9      0.0   1122.0      0.0    154.2       63    131.6    131.6      100     0.000     0.000     0.000     0.000      124        0        0        0       11        2        0    17.998       97     30.0    5.399     1.90       23        8     2041  1206_RCP85_rainfed_15April_loam.PRM
  Tot(26)       15        4     2042    989.8    423.1   1560.6   499.00      0.0    989.8      0.0    682.3      0.0    162.4       59    131.5    131.5      100     0.000     0.000     0.000     0.000      125        0        0        0       12        2        0    17.928       97     30.0    5.378     1.84       24        8     2042  1206_RCP85_rainfed_15April_loam.PRM
  Tot(27)       15        4     2043   1956.2    372.9   1563.4   504.00      0.0   1956.2      0.0   1681.5      0.0    171.5       68    100.2    100.2      100     0.000     0.000     0.000     0.000      130        0        0        0       14        3        0    18.145       96     30.0    5.444     2.01       29        8     2043  1206_RCP85_rainfed_15April_loam.PRM
  Tot(28)       15        4     2044   1868.1    355.3   1564.7   508.00      0.0   1868.1      0.0   1596.0      0.0    157.9       69     96.7     96.7       98     0.000     0.000     0.000     0.000      132        0        0        0       15        1        1    18.141       96     30.0    5.442     2.15       31        8     2044  1206_RCP85_rainfed_15April_loam.PRM
  Tot(29)       15        4     2045   1153.8    400.5   1566.5   513.00      0.0   1153.8      0.0    881.7      0.0    148.2       58    113.8    113.8      100     0.000     0.000     0.000     0.000      126        0        0        0       12        3        0    17.914       95     30.0    5.374     2.06       26        8     2045  1206_RCP85_rainfed_15April_loam.PRM
  Tot(30)       15        4     2046   1426.3    442.3   1559.9   519.00      0.0   1426.3      0.0   1164.6      0.0    111.4       35    121.7    121.7       97     0.000     0.000     0.000     0.000      113        0        0        0        9       32        1    13.055       75     30.3    3.950     1.71       12        8     2046  1206_RCP85_rainfed_15April_loam.PRM
  Tot(31)       15        4     2047   1383.9    405.2   1562.7   524.00      0.0   1383.9      0.0   1063.4      0.0    168.6       64    127.9    127.9      100     0.000     0.000     0.000     0.000      119        0        0        0       10        7        0    17.379       94     30.0    5.214     1.76       19        8     2047  1206_RCP85_rainfed_15April_loam.PRM
  Tot(32)       15        4     2048   1652.4    363.2   1557.0   529.00      0.0   1652.4      0.0   1405.6      0.0    157.5       61     86.4     86.4      100     0.000     0.000     0.000     0.000      129        0        0        0       13        2       -0    18.525       97     30.0    5.558     2.28       29        8     2048  1206_RCP85_rainfed_15April_loam.PRM
  Tot(33)       15        4     2049   1402.0    372.3   1562.4   535.00      0.0   1402.0      0.0   1130.9      0.0    167.2       67    101.6    101.6      100     0.000     0.000     0.000     0.000      129        0        0        0       13        3        0    17.960       96     30.0    5.388     2.01       28        8     2049  1206_RCP85_rainfed_15April_loam.PRM
  Tot(34)       15        4     2050   2185.1    392.8   1565.1   541.00      0.0   2185.1      0.0   1853.1      0.0    168.1       67    121.0    121.0      100     0.000     0.000     0.000     0.000      125        0        0        0       11        2        0    18.021       97     30.0    5.406     1.87       26        8     2050  1206_RCP85_rainfed_15April_loam.PRM
  Tot(35)       15        4     2051    984.7    407.4   1569.5   546.00      0.0    984.7      0.0    670.3      0.0    175.8       70    132.8    132.8       95     0.000     0.000     0.000     0.000      120        0        0        0       10       15        1    16.270       91     30.0    4.881     1.59       19        8     2051  1206_RCP85_rainfed_15April_loam.PRM
  Tot(36)       15        4     2052   1643.1    443.4   1559.7   552.00      0.0   1643.1      0.0   1297.3      0.0    177.0       66    156.7    156.7       97     0.000     0.000     0.000     0.000      117        0        0        0        9       18        1    16.383       92     30.1    4.929     1.49       17        8     2052  1206_RCP85_rainfed_15April_loam.PRM
  Tot(37)       15        4     2053   1169.3    387.0   1558.5   558.00      0.0   1169.3      0.0    807.8      0.0    159.5       64    122.7    122.7      100     0.000     0.000     0.000     0.000      123        0        0        0       11        2       -0    18.277       98     30.0    5.483     1.95       22        8     2053  1206_RCP85_rainfed_15April_loam.PRM
  Tot(38)       15        4     2054   1686.8    386.4   1564.5   564.00      0.0   1686.8      0.0   1415.9      0.0    144.4       54    104.8    104.8      100     0.000     0.000     0.000     0.000      123        0        0        0       11        3        0    17.792       95     30.0    5.338     2.15       22        8     2054  1206_RCP85_rainfed_15April_loam.PRM
  Tot(39)       15        4     2055   1062.0    381.8   1568.2   571.00      0.0   1062.0      0.0    766.3      0.0    159.2       68    131.1    131.1      100     0.000     0.000     0.000     0.000      115        0        0        0        8        3        0    17.176       96     30.0    5.153     1.78       15        8     2055  1206_RCP85_rainfed_15April_loam.PRM
  Tot(40)       15        4     2056   1703.1    368.9   1567.1   577.00      0.0   1703.1      0.0   1448.8      0.0    151.2       60     98.7     98.7       98     0.000     0.000     0.000     0.000      124        0        0        0       11        4        2    17.244       92     30.0    5.173     2.09       24        8     2056  1206_RCP85_rainfed_15April_loam.PRM
  Tot(41)       15        4     2057   1704.6    373.6   1563.5   583.00      0.0   1704.6      0.0   1436.8      0.0    132.5       50    100.7    100.7      100     0.000     0.000     0.000     0.000      116        0        0        0        8        7       -0    17.005       93     30.0    5.101     2.19       15        8     2057  1206_RCP85_rainfed_15April_loam.PRM
  Tot(42)       15        4     2058   1559.1    374.9   1557.4   590.00      0.0   1559.1      0.0   1312.4      0.0    135.7       54    101.7    101.7      100     0.000     0.000     0.000     0.000      121        0        0        0       10        4        0    17.592       94     30.0    5.278     2.22       20        8     2058  1206_RCP85_rainfed_15April_loam.PRM
  Tot(43)       15        4     2059   1851.2    373.9   1558.1   597.00      0.0   1851.2      0.0   1560.4      0.0    134.1       50    101.6    101.6      100     0.000     0.000     0.000     0.000      116        0        0        0        8        5        0    17.103       93     30.0    5.131     2.18       17        8     2059  1206_RCP85_rainfed_15April_loam.PRM
  Tot(44)       15        4     2060   1692.1    397.4   1557.2   604.00      0.0   1692.1      0.0   1405.3      0.0    139.2       52    115.7    115.7      100     0.000     0.000     0.000     0.000      119        0        0        0        9        8        1    17.193       94     30.0    5.158     2.02       18        8     2060  1206_RCP85_rainfed_15April_loam.PRM
  Tot(45)       15        4     2061   1356.2    376.1   1560.4   611.00      0.0   1356.2      0.0   1061.8      0.0    158.4       68    129.3    129.3      100     0.000     0.000     0.000     0.000      116        0        0        0        8        2        0    17.812       98     30.0    5.344     1.87       15        8     2061  1206_RCP85_rainfed_15April_loam.PRM
  Tot(46)       15        4     2062   1537.7    368.7   1566.5   618.00      0.0   1537.7      0.0   1229.0      0.0    180.3       79    117.7    117.7       99     0.000     0.000     0.000     0.000      121        0        0        0       10        1        0    18.052       98     30.0    5.416     1.83       20        8     2062  1206_RCP85_rainfed_15April_loam.PRM
  Tot(47)       15        4     2063   1617.5    338.2   1569.2   625.00      0.0   1617.5      0.0   1391.6      0.0    137.1       60     89.4     89.4      100     0.000     0.000     0.000     0.000      123        0        0        0       10        3        0    18.021       95     30.0    5.406     2.41       23        8     2063  1206_RCP85_rainfed_15April_loam.PRM
  Tot(48)       15        4     2064   1273.8    413.4   1567.2   632.00      0.0   1273.8      0.0    985.2      0.0    163.7       59    123.0    123.0      100     0.000     0.000     0.000     0.000      117        0        0        0        8        6        0    17.239       95     30.0    5.172     1.82       17        8     2064  1206_RCP85_rainfed_15April_loam.PRM
  Tot(49)       15        4     2065   1600.3    346.1   1559.3   639.00      0.0   1600.3      0.0   1299.3      0.0    185.8       82     98.9     98.9      100     0.000     0.000     0.000     0.000      122        0        0        0       10        0       -0    18.756       99     30.0    5.627     1.98       21        8     2065  1206_RCP85_rainfed_15April_loam.PRM
  Tot(50)       15        4     2066   1876.9    372.4   1564.2   647.00      0.0   1876.9      0.0   1612.4      0.0    153.6       62    110.5    110.5      100     0.000     0.000     0.000     0.000      117        0        0        0        9        2        0    17.810       97     30.0    5.343     2.04       16        8     2066  1206_RCP85_rainfed_15April_loam.PRM
  Tot(51)       15        4     2067   1887.7    366.7   1560.0   654.00      0.0   1887.7      0.0   1641.1      0.0    139.8       55    103.7    103.7      100     0.000     0.000     0.000     0.000      115        0        0        0        7        3        0    17.413       95     30.0    5.224     2.16       14        8     2067  1206_RCP85_rainfed_15April_loam.PRM
  Tot(52)       15        4     2068   1721.7    352.4   1557.3   662.00      0.0   1721.7      0.0   1450.3      0.0    154.1       69    107.4    107.4      100     0.000     0.000     0.000     0.000      119        0        0        0        9        2        0    18.003       97     30.0    5.401     2.07       17        8     2068  1206_RCP85_rainfed_15April_loam.PRM
  Tot(53)       15        4     2069   1559.6    355.3   1568.4   669.00      0.0   1559.6      0.0   1280.4      0.0    175.2       76    100.6    100.6      100     0.000     0.000     0.000     0.000      117        0        0        0        8        1        0    18.144       98     30.0    5.443     2.00       18        8     2069  1206_RCP85_rainfed_15April_loam.PRM
  Tot(54)       15        4     2070   1561.2    346.5   1562.3   677.00      0.0   1561.2      0.0   1282.7      0.0    155.0       69     98.9     98.9      100     0.000     0.000     0.000     0.000      117        0        0        0        8        2        0    18.355       97     30.0    5.506     2.19       16        8     2070  1206_RCP85_rainfed_15April_loam.PRM
  Tot(55)       15        4     2071   1770.0    306.6   1560.9   685.00      0.0   1770.0      0.0   1507.8      0.0    172.9       92     92.0     92.0      100     0.000     0.000     0.000     0.000      124        0        0        0       11        0        0    18.874       99     30.0    5.662     2.16       23        8     2071  1206_RCP85_rainfed_15April_loam.PRM
  Tot(56)       15        4     2072   1710.7    310.9   1560.0   693.00      0.0   1710.7      0.0   1433.8      0.0    154.1       75     85.7     85.7      100     0.000     0.000     0.000     0.000      119        0        0        0        9        1        0    18.482       98     30.0    5.545     2.32       17        8     2072  1206_RCP85_rainfed_15April_loam.PRM
  Tot(57)       15        4     2073   1078.5    433.7   1562.3   701.00      0.0   1078.5      0.0    804.6      0.0    111.3       39    142.7    142.7       97     0.000     0.000     0.000     0.000      106        0        0        0        5       22        1    15.001       88     30.4    4.563     1.80        4        8     2073  1206_RCP85_rainfed_15April_loam.PRM
  Tot(58)       15        4     2074   1337.6    376.7   1569.8   709.00      0.0   1337.6      0.0   1046.4      0.0    171.0       74    121.6    121.6      100     0.000     0.000     0.000     0.000      115        0        0        0        8        2        0    17.753       97     30.0    5.326     1.83       14        8     2074  1206_RCP85_rainfed_15April_loam.PRM
  Tot(59)       15        4     2075   1843.8    418.3   1560.2   717.00      0.0   1843.8      0.0   1547.9      0.0    148.3       57    136.5    136.5       99     0.000     0.000     0.000     0.000      109        0        0        0        6        4        1    16.392       93     30.0    4.922     1.74        7        8     2075  1206_RCP85_rainfed_15April_loam.PRM
  Tot(60)       15        4     2076   1923.6    289.9   1566.0   725.00      0.0   1923.6      0.0   1661.5      0.0    155.9       84     76.2     76.2      100     0.000     0.000     0.000     0.000      124        0        0        0       10        0        0    19.055       99     30.0    5.716     2.49       23        8     2076  1206_RCP85_rainfed_15April_loam.PRM
  Tot(61)       15        4     2077   1440.7    315.5   1557.3   733.00      0.0   1440.7      0.0   1171.2      0.0    156.0       83    107.4    107.4      100     0.000     0.000     0.000     0.000      117        0        0        0        8        1        0    18.203       98     30.0    5.461     2.07       15        8     2077  1206_RCP85_rainfed_15April_loam.PRM
  Tot(62)       15        4     2078   2010.3    355.6   1564.4   742.00      0.0   2010.3      0.0   1798.3      0.0    118.8       45     82.9     82.9       99     0.000     0.000     0.000     0.000      112        0        0        0        6        6        0    17.176       92     30.0    5.153     2.57       10        8     2078  1206_RCP85_rainfed_15April_loam.PRM
  Tot(63)       15        4     2079   1331.3    381.1   1569.7   750.00      0.0   1331.3      0.0   1077.5      0.0    139.2       54    101.8    101.8      100     0.000     0.000     0.000     0.000      114        0        0        0        7        4        0    17.912       95     30.0    5.374     2.25       13        8     2079  1206_RCP85_rainfed_15April_loam.PRM
  Tot(64)       15        4     2080   1705.6    394.4   1561.6   758.00      0.0   1705.6      0.0   1452.1      0.0    137.8       52    107.6    107.6       99     0.000     0.000     0.000     0.000      110        0        0        0        6        5        1    16.584       92     30.0    4.975     2.04        8        8     2080  1206_RCP85_rainfed_15April_loam.PRM
  Tot(65)       15        4     2081   1807.4    334.5   1563.1   767.00      0.0   1807.4      0.0   1553.4      0.0    159.5       70     88.1     88.1      100     0.000     0.000     0.000     0.000      114        0        0        0        7        2        0    17.903       96     30.0    5.371     2.19       13        8     2081  1206_RCP85_rainfed_15April_loam.PRM
  Tot(66)       15        4     2082   1714.0    299.2   1566.3   775.00      0.0   1714.0      0.0   1466.1      0.0    157.7       83     81.9     81.9      100     0.000     0.000     0.000     0.000      121        0        0        0        9        0        0    18.929       99     30.0    5.679     2.38       20        8     2082  1206_RCP85_rainfed_15April_loam.PRM
  Tot(67)       15        4     2083   1416.4    398.6   1569.7   784.00      0.0   1416.4      0.0   1088.3      0.0    169.9       71    140.3    140.3      100     0.000     0.000     0.000     0.000      109        0        0        0        6        2        0    17.307       98     30.0    5.192     1.68        7        8     2083  1206_RCP85_rainfed_15April_loam.PRM
  Tot(68)       15        4     2084   1616.6    368.9   1566.7   792.00      0.0   1616.6      0.0   1261.3      0.0    190.0       85    121.6    121.6       99     0.000     0.000     0.000     0.000      108        0        0        0        5        1        1    17.113       98     30.0    5.134     1.65        7        8     2084  1206_RCP85_rainfed_15April_loam.PRM
  Tot(69)       15        4     2085   1616.3    331.7   1557.8   801.00      0.0   1616.3      0.0   1371.7      0.0    123.9       55     89.7     89.7      100     0.000     0.000     0.000     0.000      111        0        0        0        6        3        1    17.602       95     30.0    5.280     2.50       11        8     2085  1206_RCP85_rainfed_15April_loam.PRM
  Tot(70)       15        4     2086   1032.7    333.5   1559.7   810.00      0.0   1032.7      0.0    765.2      0.0    120.4       60    114.6    114.6      100     0.000     0.000     0.000     0.000      108        0        0        0        5        2        0    17.415       97     30.0    5.225     2.23        6        8     2086  1206_RCP85_rainfed_15April_loam.PRM
  Tot(71)       15        4     2087   1016.0    334.5   1560.6   818.00      0.0   1016.0      0.0    694.9      0.0    169.5       89    122.8    122.8      100     0.000     0.000     0.000     0.000      106        0        0        0        4        1        0    17.466       99     30.0    5.240     1.80        4        8     2087  1206_RCP85_rainfed_15April_loam.PRM
  Tot(72)       15        4     2088   1957.9    352.4   1562.1   827.00      0.0   1957.9      0.0   1683.9      0.0    155.7       69    108.9    108.9      100     0.000     0.000     0.000     0.000      109        0        0        0        5        1        0    17.588       98     30.0    5.276     2.01        7        8     2088  1206_RCP85_rainfed_15April_loam.PRM
  Tot(73)       15        4     2089   1255.6    357.6   1567.3   836.00      0.0   1255.6      0.0   1032.4      0.0    124.0       49     88.2     88.2      100     0.000     0.000     0.000     0.000      108        0        0        0        5        5        0    16.882       93     30.0    5.065     2.41        7        8     2089  1206_RCP85_rainfed_15April_loam.PRM
  Tot(74)       15        4     2090   1287.6    370.4   1557.7   845.00      0.0   1287.6      0.0   1043.7      0.0    129.4       49     98.2     98.2      100     0.000     0.000     0.000     0.000      107        0        0        0        5        6        0    16.683       93     30.0    5.005     2.22        6        8     2090  1206_RCP85_rainfed_15April_loam.PRM
  Tot(75)       15        4     2091   1382.9    366.6   1568.1   854.00      0.0   1382.9      0.0   1087.7      0.0    166.9       73    123.4    123.4      100     0.000     0.000     0.000     0.000      104        0        0        0        4        9        0    16.206       95     30.0    4.862     1.69        4        8     2091  1206_RCP85_rainfed_15April_loam.PRM
  Tot(76)       15        4     2092   1876.7    326.8   1567.3   863.00      0.0   1876.7      0.0   1607.7      0.0    167.1       82    101.1    101.1       99     0.000     0.000     0.000     0.000      111        0        0        0        6        1        1    17.791       97     30.0    5.337     2.01       10        8     2092  1206_RCP85_rainfed_15April_loam.PRM
  Tot(77)       15        4     2093    942.4    339.9   1557.9   872.00      0.0    942.4      0.0    685.6      0.0    144.6       63     90.7     90.7      100     0.000     0.000     0.000     0.000      105        0        0        0        4        3       -0    17.103       96     30.0    5.131     2.20        4        8     2093  1206_RCP85_rainfed_15April_loam.PRM
  Tot(78)       15        4     2094   1338.2    314.1   1566.3   881.00      0.0   1338.2      0.0   1035.3      0.0    161.8       80     88.6     88.6      100     0.000     0.000     0.000     0.000      110        0        0        0        5        1       -0    17.755       98     30.0    5.327     2.13       10        8     2094  1206_RCP85_rainfed_15April_loam.PRM
  Tot(79)       15        4     2095   1604.2    294.2   1561.3   890.00      0.0   1604.2      0.0   1294.1      0.0    164.6       95     97.4     97.4      100     0.000     0.000     0.000     0.000      110        0        0        0        5        0        0    18.142       99     30.0    5.443     2.08        9        8     2095  1206_RCP85_rainfed_15April_loam.PRM
  Tot(80)       15        4     2096   1337.4    361.3   1562.6   899.00      0.0   1337.4      0.0   1019.4      0.0    179.6       82    114.7    114.7      100     0.000     0.000     0.000     0.000      108        0        0        0        5        1        0    17.570       99     30.0    5.271     1.80        7        8     2096  1206_RCP85_rainfed_15April_loam.PRM
  Tot(81)       15        4     2097   1555.4    309.4   1558.6   908.00      0.0   1555.4      0.0   1300.0      0.0    147.5       73     84.3     84.3       99     0.000     0.000     0.000     0.000      109        0        0        0        5        1        1    17.859       97     30.0    5.358     2.33        7        8     2097  1206_RCP85_rainfed_15April_loam.PRM
  Tot(82)       15        4     2098   1293.5    307.6   1567.5   917.00      0.0   1293.5      0.0   1021.5      0.0    169.6       89     91.6     91.6      100     0.000     0.000     0.000     0.000      109        0        0        0        5        0       -0    17.884       99     30.0    5.365     2.07        7        8     2098  1206_RCP85_rainfed_15April_loam.PRM
  Tot(83)       15        4     2099   1923.8    321.6   1568.9   927.00      0.0   1923.8      0.0   1655.9      0.0    149.4       70     80.3     80.3       97     0.000     0.000     0.000     0.000      107        0        0        0        4        2        3    16.873       93     30.0    5.062     2.22        6        8     2099  1206_RCP85_rainfed_15April_loam.PRM
