AquaCrop 6.0 (March 2017) - Output created on (date) : 07/06/2021   at (time) : 19:44:30

    RunNr     Day1   Month1    Year1     Rain      ETo       GD     CO2      Irri   Infilt   Runoff    Drain   Upflow        E     E/Ex       Tr      TrW   Tr/Trx    SaltIn   SaltOut    SaltUp  SaltProf     Cycle   SaltStr  FertStr  WeedStr  TempStr   ExpStr   StoStr  BioMass  Brelative   HI     Yield     WPet     DayN   MonthN    YearN
                                           mm       mm    °C.day    ppm        mm       mm       mm       mm       mm       mm        %       mm       mm        %    ton/ha    ton/ha    ton/ha    ton/ha      days       %        %        %        %        %        %    ton/ha        %       %    ton/ha    kg/m3
   Tot(1)       15        5     2017   1329.0    373.5   1559.3   404.00      0.0   1329.0      0.0   1074.8      0.0    155.1       65    100.0    100.0      100     0.000     0.000     0.000     0.000      129        0        0        0       15        3       -0    17.486       95     30.0    5.246     2.07       28        9     2017  1206_RCP45_rainfed_15May_sandyloam.PRM
   Tot(2)       15        5     2018   1613.5    386.6   1561.3   407.00      0.0   1613.5      0.0   1351.4      0.0    164.5       69     95.4     95.4      100     0.000     0.000     0.000     0.000      141        0        0        0       21        2        0    18.066       97     30.0    5.420     2.09        9       10     2018  1206_RCP45_rainfed_15May_sandyloam.PRM
   Tot(3)       15        5     2019   1041.8    397.9   1558.6   409.00      0.0   1041.8      0.0    799.2      0.0    145.5       56    101.1    101.1      100     0.000     0.000     0.000     0.000      126        0        0        0       14        5        0    16.976       93     30.0    5.093     2.08       25        9     2019  1206_RCP45_rainfed_15May_sandyloam.PRM
   Tot(4)       15        5     2020   1277.0    368.4   1564.9   411.00      0.0   1277.0      0.0   1013.0      0.0    163.6       72    102.6    102.6      100     0.000     0.000     0.000     0.000      135        0        0        0       17        1        0    18.096       98     30.0    5.429     2.06        2       10     2020  1206_RCP45_rainfed_15May_sandyloam.PRM
   Tot(5)       15        5     2021   2127.9    341.1   1559.6   413.00      0.0   2127.9      0.0   1860.7      0.0    165.1       89     89.0     89.0      100     0.000     0.000     0.000     0.000      158        0        0        0       31        0        0    18.508       99     30.0    5.552     2.19       27       10     2021  1206_RCP45_rainfed_15May_sandyloam.PRM
   Tot(6)       15        5     2022   1639.2    374.3   1562.1   416.00      0.0   1639.2      0.0   1364.1      0.0    181.9       83     91.5     91.5      100     0.000     0.000     0.000     0.000      147        0        0        0       24        0       -0    18.576       99     30.0    5.573     2.05       15       10     2022  1206_RCP45_rainfed_15May_sandyloam.PRM
   Tot(7)       15        5     2023   1633.0    345.3   1561.7   418.00      0.0   1633.0      0.0   1348.6      0.0    171.6       95    108.2    108.2      100     0.000     0.000     0.000     0.000      143        0        0        0       21        0        0    18.602       99     30.0    5.581     2.00       12       10     2023  1206_RCP45_rainfed_15May_sandyloam.PRM
   Tot(8)       15        5     2024   1116.6    400.2   1562.0   420.00      0.0   1116.6      0.0    825.9      0.0    177.9       74    111.5    111.5      100     0.000     0.000     0.000     0.000      137        0        0        0       19        1        0    18.264       98     30.0    5.479     1.90        6       10     2024  1206_RCP45_rainfed_15May_sandyloam.PRM
   Tot(9)       15        5     2025   1475.9    372.8   1561.8   423.00      0.0   1475.9      0.0   1248.9      0.0    145.2       59     92.7     92.7      100     0.000     0.000     0.000     0.000      129        0        0        0       14        3       -0    17.660       95     30.0    5.298     2.24       26        9     2025  1206_RCP45_rainfed_15May_sandyloam.PRM
  Tot(10)       15        5     2026   1805.8    362.5   1560.9   425.00      0.0   1805.8      0.0   1505.6      0.0    204.5       95     95.4     95.4      100     0.000     0.000     0.000     0.000      139        0        0        0       20        0       -0    18.452       99     30.0    5.536     1.86        7       10     2026  1206_RCP45_rainfed_15May_sandyloam.PRM
  Tot(11)       15        5     2027   1632.6    375.8   1562.4   428.00      0.0   1632.6      0.0   1412.0      0.0    137.5       53     88.6     88.6      100     0.000     0.000     0.000     0.000      128        0        0        0       15        3       -0    17.551       95     30.0    5.265     2.35       26        9     2027  1206_RCP45_rainfed_15May_sandyloam.PRM
  Tot(12)       15        5     2028   1434.8    371.2   1559.1   430.00      0.0   1434.8      0.0   1135.5      0.0    196.5       92    111.5    111.5      100     0.000     0.000     0.000     0.000      138        0        0        0       19        0        0    18.549       99     30.0    5.565     1.82        7       10     2028  1206_RCP45_rainfed_15May_sandyloam.PRM
  Tot(13)       15        5     2029   1567.9    390.8   1564.4   433.00      0.0   1567.9      0.0   1277.3      0.0    166.9       72    121.5    121.5      100     0.000     0.000     0.000     0.000      130        0        0        0       16        1       -0    17.960       98     30.0    5.388     1.87       28        9     2029  1206_RCP45_rainfed_15May_sandyloam.PRM
  Tot(14)       15        5     2030   1519.6    358.0   1557.2   435.00      0.0   1519.6      0.0   1245.2      0.0    184.4       89     99.3     99.3      100     0.000     0.000     0.000     0.000      137        0        0        0       18        0        0    18.702       99     30.0    5.611     1.98        4       10     2030  1206_RCP45_rainfed_15May_sandyloam.PRM
  Tot(15)       15        5     2031   1394.6    426.1   1563.2   438.00      0.0   1394.6      0.0   1142.8      0.0    150.7       53    106.2    106.2      100     0.000     0.000     0.000     0.000      128        0        0        0       15        6        0    16.948       92     30.0    5.084     2.00       26        9     2031  1206_RCP45_rainfed_15May_sandyloam.PRM
  Tot(16)       15        5     2032   1521.5    416.1   1563.4   440.00      0.0   1521.5      0.0   1259.9      0.0    170.1       69    110.6    110.6      100     0.000     0.000     0.000     0.000      130        0        0        0       14        1        0    18.402       98     30.0    5.521     1.98       28        9     2032  1206_RCP45_rainfed_15May_sandyloam.PRM
  Tot(17)       15        5     2033   1344.7    360.6   1561.6   443.00      0.0   1344.7      0.0   1055.7      0.0    176.4       85    112.1    112.1      100     0.000     0.000     0.000     0.000      129        0        0        0       13        1        0    18.426       99     30.0    5.528     1.93       27        9     2033  1206_RCP45_rainfed_15May_sandyloam.PRM
  Tot(18)       15        5     2034   1162.0    393.8   1561.3   445.00      0.0   1162.0      0.0    863.8      0.0    191.1       94    113.6    113.6      100     0.000     0.000     0.000     0.000      147        0        0        0       24        0        0    18.701       99     30.0    5.610     1.85       15       10     2034  1206_RCP45_rainfed_15May_sandyloam.PRM
  Tot(19)       15        5     2035   1555.5    351.1   1566.0   448.00      0.0   1555.5      0.0   1281.1      0.0    166.2       78    105.8    105.8      100     0.000     0.000     0.000     0.000      126        0        0        0       13        1        0    18.267       98     30.0    5.480     2.03       24        9     2035  1206_RCP45_rainfed_15May_sandyloam.PRM
  Tot(20)       15        5     2036   1794.6    339.9   1561.1   450.00      0.0   1794.6      0.0   1519.1      0.0    166.0       92    106.4    106.4      100     0.000     0.000     0.000     0.000      137        0        0        0       18        0        0    18.866       99     30.0    5.660     2.09        5       10     2036  1206_RCP45_rainfed_15May_sandyloam.PRM
  Tot(21)       15        5     2037   1212.8    383.4   1557.7   453.00      0.0   1212.8      0.0    950.3      0.0    164.5       73    103.6    103.6      100     0.000     0.000     0.000     0.000      139        0        0        0       20        1        0    18.497       98     30.0    5.549     2.08        7       10     2037  1206_RCP45_rainfed_15May_sandyloam.PRM
  Tot(22)       15        5     2038   1860.0    355.2   1558.8   456.00      0.0   1860.0      0.0   1588.8      0.0    189.4       90     90.0     90.0      100     0.000     0.000     0.000     0.000      140        0        0        0       20        0       -0    18.763       99     30.0    5.629     2.03        9       10     2038  1206_RCP45_rainfed_15May_sandyloam.PRM
  Tot(23)       15        5     2039   1722.2    306.3   1561.5   458.00      0.0   1722.2      0.0   1480.2      0.0    160.1       95     85.3     85.3      100     0.000     0.000     0.000     0.000      139        0        0        0       20        0        0    18.852       99     30.0    5.656     2.32        9       10     2039  1206_RCP45_rainfed_15May_sandyloam.PRM
  Tot(24)       15        5     2040   1519.1    375.6   1563.8   461.00      0.0   1519.1      0.0   1252.3      0.0    171.5       79    102.2    102.2      100     0.000     0.000     0.000     0.000      133        0        0        0       16        1        0    18.588       98     30.0    5.576     2.05        1       10     2040  1206_RCP45_rainfed_15May_sandyloam.PRM
  Tot(25)       15        5     2041   1419.1    403.8   1564.7   463.00      0.0   1419.1      0.0   1181.8      0.0    148.9       56     97.9     97.9      100     0.000     0.000     0.000     0.000      123        0        0        0       12        5        0    17.226       93     30.0    5.168     2.11       21        9     2041  1206_RCP45_rainfed_15May_sandyloam.PRM
  Tot(26)       15        5     2042   1069.0    412.1   1562.7   466.00      0.0   1069.0      0.0    863.4      0.0    111.3       39     95.8     95.8      100     0.000     0.000     0.000     0.000      124        0        0        0       12        8        0    16.658       89     30.0    4.997     2.44       22        9     2042  1206_RCP45_rainfed_15May_sandyloam.PRM
  Tot(27)       15        5     2043   1588.7    337.5   1562.6   469.00      0.0   1588.7      0.0   1323.1      0.0    181.9       92     94.5     94.5      100     0.000     0.000     0.000     0.000      131        0        0        0       14        0        0    18.809       99     30.0    5.643     2.05       29        9     2043  1206_RCP45_rainfed_15May_sandyloam.PRM
  Tot(28)       15        5     2044   1992.8    338.6   1564.6   471.00      0.0   1992.8      0.0   1741.4      0.0    167.9       90     95.8     95.8      100     0.000     0.000     0.000     0.000      133        0        0        0       16        0        0    18.923       99     30.0    5.677     2.16        1       10     2044  1206_RCP45_rainfed_15May_sandyloam.PRM
  Tot(29)       15        5     2045   1533.7    358.0   1559.6   474.00      0.0   1533.7      0.0   1260.1      0.0    179.2       85     92.3     92.3      100     0.000     0.000     0.000     0.000      143        0        0        0       22        0        0    18.791       99     30.0    5.637     2.09       12       10     2045  1206_RCP45_rainfed_15May_sandyloam.PRM
  Tot(30)       15        5     2046   1999.6    343.6   1562.6   476.00      0.0   1999.6      0.0   1769.9      0.0    154.3       78     85.8     85.8      100     0.000     0.000     0.000     0.000      144        0        0        0       23        0       -0    18.750       99     30.0    5.625     2.35       12       10     2046  1206_RCP45_rainfed_15May_sandyloam.PRM
  Tot(31)       15        5     2047   1184.7    317.8   1565.7   479.00      0.0   1184.7      0.0    931.9      0.0    152.2       86    101.2    101.2      100     0.000     0.000     0.000     0.000      132        0        0        0       15        0        0    18.820       99     30.0    5.646     2.24       30        9     2047  1206_RCP45_rainfed_15May_sandyloam.PRM
  Tot(32)       15        5     2048   1312.0    352.3   1563.0   481.00      0.0   1312.0      0.0   1050.8      0.0    156.7       81    100.8    100.8      100     0.000     0.000     0.000     0.000      139        0        0        0       20        0        0    18.908       99     30.0    5.672     2.21        7       10     2048  1206_RCP45_rainfed_15May_sandyloam.PRM
  Tot(33)       15        5     2049   1480.3    402.3   1563.5   484.00      0.0   1480.3      0.0   1260.0      0.0    137.5       50     89.6     89.6      100     0.000     0.000     0.000     0.000      122        0        0        0       11        7       -0    16.907       91     30.0    5.072     2.26       19        9     2049  1206_RCP45_rainfed_15May_sandyloam.PRM
  Tot(34)       15        5     2050   1744.0    313.8   1565.3   487.00      0.0   1744.0      0.0   1487.6      0.0    173.2       95     84.8     84.8      100     0.000     0.000     0.000     0.000      136        0        0        0       17        0       -0    18.980       99     30.0    5.694     2.22        4       10     2050  1206_RCP45_rainfed_15May_sandyloam.PRM
  Tot(35)       15        5     2051   1788.6    319.2   1559.3   489.00      0.0   1788.6      0.0   1536.6      0.0    154.7       82     94.7     94.7      100     0.000     0.000     0.000     0.000      126        0        0        0       13        0       -0    18.644       99     30.0    5.593     2.27       24        9     2051  1206_RCP45_rainfed_15May_sandyloam.PRM
  Tot(36)       15        5     2052   1817.6    380.6   1562.3   492.00      0.0   1817.6      0.0   1600.7      0.0    126.1       52     94.6     94.6      100     0.000     0.000     0.000     0.000      126        0        0        0       13        3       -0    17.993       95     30.0    5.398     2.48       23        9     2052  1206_RCP45_rainfed_15May_sandyloam.PRM
  Tot(37)       15        5     2053   1668.6    340.0   1562.9   494.00      0.0   1668.6      0.0   1388.5      0.0    174.6       95    103.8    103.8      100     0.000     0.000     0.000     0.000      131        0        0        0       14        0       -0    18.901       99     30.0    5.670     2.05       29        9     2053  1206_RCP45_rainfed_15May_sandyloam.PRM
  Tot(38)       15        5     2054   1992.2    339.9   1563.7   496.00      0.0   1992.2      0.0   1771.1      0.0    141.3       68     85.4     85.4      100     0.000     0.000     0.000     0.000      130        0        0        0       15        2        0    18.193       95     30.0    5.458     2.43       28        9     2054  1206_RCP45_rainfed_15May_sandyloam.PRM
  Tot(39)       15        5     2055   1359.7    352.3   1562.6   498.00      0.0   1359.7      0.0   1082.1      0.0    174.3       84    105.3    105.3      100     0.000     0.000     0.000     0.000      123        0        0        0       11        0        0    18.567       99     30.0    5.570     2.00       22        9     2055  1206_RCP45_rainfed_15May_sandyloam.PRM
  Tot(40)       15        5     2056   1212.5    352.4   1565.1   501.00      0.0   1212.5      0.0    948.0      0.0    152.0       75    108.9    108.9      100     0.000     0.000     0.000     0.000      131        0        0        0       15        1        0    18.683       98     30.0    5.605     2.16        1       10     2056  1206_RCP45_rainfed_15May_sandyloam.PRM
  Tot(41)       15        5     2057   1493.5    354.9   1563.0   503.00      0.0   1493.5      0.0   1239.1      0.0    153.7       79    104.5    104.5      100     0.000     0.000     0.000     0.000      139        0        0        0       21        0        0    18.883       99     30.0    5.665     2.21        6       10     2057  1206_RCP45_rainfed_15May_sandyloam.PRM
  Tot(42)       15        5     2058   1576.6    302.5   1561.2   505.00      0.0   1576.6      0.0   1323.4      0.0    162.4       98     88.5     88.5      100     0.000     0.000     0.000     0.000      135        0        0        0       17        0        0    18.899       99     30.0    5.670     2.28        4       10     2058  1206_RCP45_rainfed_15May_sandyloam.PRM
  Tot(43)       15        5     2059   1652.7    339.0   1560.5   507.00      0.0   1652.7      0.0   1391.4      0.0    174.7       89     88.8     88.8      100     0.000     0.000     0.000     0.000      144        0        0        0       23        0       -0    18.938       99     30.0    5.681     2.17       12       10     2059  1206_RCP45_rainfed_15May_sandyloam.PRM
  Tot(44)       15        5     2060   2090.8    313.4   1558.0   509.00      0.0   2090.8      0.0   1855.9      0.0    155.8       91     86.2     86.2      100     0.000     0.000     0.000     0.000      131        0        0        0       15        0        0    19.011       99     30.0    5.703     2.38       29        9     2060  1206_RCP45_rainfed_15May_sandyloam.PRM
  Tot(45)       15        5     2061   1492.1    371.0   1564.6   511.00      0.0   1492.1      0.0   1274.8      0.0    137.4       60     92.2     92.2      100     0.000     0.000     0.000     0.000      131        0        0        0       16        3        0    18.163       95     30.0    5.449     2.39       29        9     2061  1206_RCP45_rainfed_15May_sandyloam.PRM
  Tot(46)       15        5     2062   1634.8    341.5   1559.0   513.00      0.0   1634.8      0.0   1387.1      0.0    157.7       86     97.3     97.3      100     0.000     0.000     0.000     0.000      133        0        0        0       17        1       -0    18.897       99     30.0    5.669     2.24        1       10     2062  1206_RCP45_rainfed_15May_sandyloam.PRM
  Tot(47)       15        5     2063   1680.6    345.8   1564.4   514.00      0.0   1680.6      0.0   1429.0      0.0    160.6       82    101.9    101.9      100     0.000     0.000     0.000     0.000      125        0        0        0       12        0       -0    18.624       99     30.0    5.587     2.14       23        9     2063  1206_RCP45_rainfed_15May_sandyloam.PRM
  Tot(48)       15        5     2064   1746.5    329.5   1559.1   516.00      0.0   1746.5      0.0   1488.9      0.0    163.4       86     96.4     96.4      100     0.000     0.000     0.000     0.000      131        0        0        0       14        0        0    18.969       99     30.0    5.691     2.21       29        9     2064  1206_RCP45_rainfed_15May_sandyloam.PRM
  Tot(49)       15        5     2065   1648.1    370.8   1565.8   518.00      0.0   1648.1      0.0   1438.8      0.0    129.5       50     83.9     83.9      100     0.000     0.000     0.000     0.000      122        0        0        0       11        5        0    17.410       93     30.0    5.223     2.46       20        9     2065  1206_RCP45_rainfed_15May_sandyloam.PRM
  Tot(50)       15        5     2066   1621.2    320.4   1557.9   519.00      0.0   1621.2      0.0   1395.1      0.0    132.5       74     94.1     94.1      100     0.000     0.000     0.000     0.000      134        0        0        0       17        0        0    18.943       99     30.0    5.683     2.53        1       10     2066  1206_RCP45_rainfed_15May_sandyloam.PRM
  Tot(51)       15        5     2067   2061.7    338.6   1565.6   520.00      0.0   2061.7      0.0   1823.2      0.0    151.6       74     87.0     87.0      100     0.000     0.000     0.000     0.000      134        0        0        0       16        1        0    18.752       98     30.0    5.626     2.38        2       10     2067  1206_RCP45_rainfed_15May_sandyloam.PRM
  Tot(52)       15        5     2068   1222.6    359.1   1557.7   522.00      0.0   1222.6      0.0    953.7      0.0    155.6       80    113.5    113.5      100     0.000     0.000     0.000     0.000      132        0        0        0       16        0        0    18.916       99     30.0    5.675     2.12       30        9     2068  1206_RCP45_rainfed_15May_sandyloam.PRM
  Tot(53)       15        5     2069   1589.4    339.4   1560.1   523.00      0.0   1589.4      0.0   1348.9      0.0    145.7       78     99.5     99.5      100     0.000     0.000     0.000     0.000      135        0        0        0       18        1        0    18.780       98     30.0    5.634     2.32        4       10     2069  1206_RCP45_rainfed_15May_sandyloam.PRM
  Tot(54)       15        5     2070   1971.5    334.0   1558.9   524.00      0.0   1971.5      0.0   1692.8      0.0    169.4       94    108.7    108.7      100     0.000     0.000     0.000     0.000      128        0        0        0       13        0       -0    18.861       99     30.0    5.658     2.04       26        9     2070  1206_RCP45_rainfed_15May_sandyloam.PRM
  Tot(55)       15        5     2071   1318.6    323.6   1561.5   525.00      0.0   1318.6      0.0   1045.8      0.0    174.8       97     96.0     96.0      100     0.000     0.000     0.000     0.000      129        0        0        0       14        0        0    18.933       99     30.0    5.680     2.11       27        9     2071  1206_RCP45_rainfed_15May_sandyloam.PRM
  Tot(56)       15        5     2072   1641.9    318.7   1563.3   527.00      0.0   1641.9      0.0   1372.6      0.0    172.1       96     95.6     95.6      100     0.000     0.000     0.000     0.000      128        0        0        0       14        0       -0    18.663       99     30.0    5.599     2.10       26        9     2072  1206_RCP45_rainfed_15May_sandyloam.PRM
  Tot(57)       15        5     2073   1613.9    312.2   1561.9   527.00      0.0   1613.9      0.0   1380.4      0.0    140.2       76     95.8     95.8      100     0.000     0.000     0.000     0.000      122        0        0        0       11        1        0    18.432       99     30.0    5.530     2.36       19        9     2073  1206_RCP45_rainfed_15May_sandyloam.PRM
  Tot(58)       15        5     2074   1601.8    309.9   1560.6   528.00      0.0   1601.8      0.0   1365.6      0.0    148.9       94     92.5     92.5      100     0.000     0.000     0.000     0.000      141        0        0        0       20        0        0    19.025       99     30.0    5.707     2.38        9       10     2074  1206_RCP45_rainfed_15May_sandyloam.PRM
  Tot(59)       15        5     2075   1419.6    349.5   1561.0   529.00      0.0   1419.6      0.0   1135.6      0.0    172.4       94    111.3    111.3      100     0.000     0.000     0.000     0.000      126        0        0        0       13        0        0    18.725       99     30.0    5.618     1.99       24        9     2075  1206_RCP45_rainfed_15May_sandyloam.PRM
  Tot(60)       15        5     2076   1388.2    311.3   1562.4   530.00      0.0   1388.2      0.0   1135.0      0.0    157.6       98     95.8     95.8      100     0.000     0.000     0.000     0.000      134        0        0        0       16        0        0    19.051       99     30.0    5.715     2.28        2       10     2076  1206_RCP45_rainfed_15May_sandyloam.PRM
  Tot(61)       15        5     2077   2000.8    342.0   1563.1   530.00      0.0   2000.8      0.0   1756.0      0.0    154.7       91    100.7    100.7      100     0.000     0.000     0.000     0.000      137        0        0        0       19        0        0    19.034       99     30.0    5.710     2.26        5       10     2077  1206_RCP45_rainfed_15May_sandyloam.PRM
  Tot(62)       15        5     2078   1845.1    321.4   1557.5   531.00      0.0   1845.1      0.0   1616.6      0.0    141.2       77     94.4     94.4      100     0.000     0.000     0.000     0.000      127        0        0        0       13        1        0    18.621       98     30.0    5.586     2.39       24        9     2078  1206_RCP45_rainfed_15May_sandyloam.PRM
  Tot(63)       15        5     2079   1527.3    330.8   1566.4   531.00      0.0   1527.3      0.0   1320.1      0.0    131.7       61     82.4     82.4      100     0.000     0.000     0.000     0.000      125        0        0        0       12        3        0    18.017       95     30.0    5.405     2.54       22        9     2079  1206_RCP45_rainfed_15May_sandyloam.PRM
  Tot(64)       15        5     2080   1717.0    357.9   1562.5   531.00      0.0   1717.0      0.0   1498.0      0.0    130.0       62     98.4     98.4      100     0.000     0.000     0.000     0.000      125        0        0        0       12        2       -0    18.234       96     30.0    5.470     2.40       22        9     2080  1206_RCP45_rainfed_15May_sandyloam.PRM
  Tot(65)       15        5     2081   1821.0    310.0   1559.9   531.00      0.0   1821.0      0.0   1582.7      0.0    147.9       86     93.3     93.3      100     0.000     0.000     0.000     0.000      131        0        0        0       15        0        0    18.981       99     30.0    5.694     2.38       28        9     2081  1206_RCP45_rainfed_15May_sandyloam.PRM
  Tot(66)       15        5     2082   1683.5    365.6   1560.6   531.00      0.0   1683.5      0.0   1461.4      0.0    120.1       54    101.0    101.0      100     0.000     0.000     0.000     0.000      128        0        0        0       13        3        0    18.005       94     30.0    5.401     2.46       26        9     2082  1206_RCP45_rainfed_15May_sandyloam.PRM
  Tot(67)       15        5     2083   1037.6    379.3   1559.6   532.00      0.0   1037.6      0.0    809.3      0.0    128.9       56    107.6    107.6      100     0.000     0.000     0.000     0.000      118        0        0        0        9        3        0    17.829       95     30.0    5.349     2.27       15        9     2083  1206_RCP45_rainfed_15May_sandyloam.PRM
  Tot(68)       15        5     2084   1554.3    327.7   1565.6   532.00      0.0   1554.3      0.0   1318.1      0.0    136.4       75    105.6    105.6      100     0.000     0.000     0.000     0.000      127        0        0        0       12        0        0    18.754       99     30.0    5.626     2.33       24        9     2084  1206_RCP45_rainfed_15May_sandyloam.PRM
  Tot(69)       15        5     2085   1784.9    329.4   1557.8   532.00      0.0   1784.9      0.0   1532.4      0.0    157.0       82     98.2     98.2      100     0.000     0.000     0.000     0.000      125        0        0        0       13        1        0    18.604       99     30.0    5.581     2.21       22        9     2085  1206_RCP45_rainfed_15May_sandyloam.PRM
  Tot(70)       15        5     2086   1455.7    343.3   1557.7   532.00      0.0   1455.7      0.0   1226.6      0.0    136.6       71     95.5     95.5      100     0.000     0.000     0.000     0.000      133        0        0        0       18        1        0    18.626       98     30.0    5.588     2.43       30        9     2086  1206_RCP45_rainfed_15May_sandyloam.PRM
  Tot(71)       15        5     2087   1685.7    325.4   1563.0   533.00      0.0   1685.7      0.0   1423.3      0.0    170.7       95     94.0     94.0      100     0.000     0.000     0.000     0.000      130        0        0        0       15        0       -0    18.822       99     30.0    5.647     2.14       27        9     2087  1206_RCP45_rainfed_15May_sandyloam.PRM
  Tot(72)       15        5     2088   1360.8    326.2   1560.6   533.00      0.0   1360.8      0.0   1135.2      0.0    129.2       75     99.1     99.1      100     0.000     0.000     0.000     0.000      142        0        0        0       23        1        0    18.785       98     30.0    5.635     2.49        9       10     2088  1206_RCP45_rainfed_15May_sandyloam.PRM
  Tot(73)       15        5     2089   1522.4    361.2   1561.3   533.00      0.0   1522.4      0.0   1262.1      0.0    135.9       67    106.1    106.1      100     0.000     0.000     0.000     0.000      125        0        0        0       13        1        0    18.548       98     30.0    5.564     2.31       22        9     2089  1206_RCP45_rainfed_15May_sandyloam.PRM
  Tot(74)       15        5     2090   1898.5    325.5   1557.4   534.00      0.0   1898.5      0.0   1661.7      0.0    148.8       97     97.4     97.4      100     0.000     0.000     0.000     0.000      145        0        0        0       25        0        0    18.937      100     30.0    5.681     2.31       14       10     2090  1206_RCP45_rainfed_15May_sandyloam.PRM
  Tot(75)       15        5     2091   1914.3    308.6   1563.4   534.00      0.0   1914.3      0.0   1678.4      0.0    150.2       84     92.0     92.0      100     0.000     0.000     0.000     0.000      125        0        0        0       12        0        0    18.551       99     30.0    5.565     2.31       22        9     2091  1206_RCP45_rainfed_15May_sandyloam.PRM
  Tot(76)       15        5     2092   1813.4    316.2   1561.8   535.00      0.0   1813.4      0.0   1578.5      0.0    140.7       93    104.1    104.1      100     0.000     0.000     0.000     0.000      139        0        0        0       20        0       -0    18.998       99     30.0    5.699     2.35        7       10     2092  1206_RCP45_rainfed_15May_sandyloam.PRM
  Tot(77)       15        5     2093   1423.2    312.0   1565.1   535.00      0.0   1423.2      0.0   1187.2      0.0    149.8       81     87.8     87.8      100     0.000     0.000     0.000     0.000      125        0        0        0       12        0        0    18.693       99     30.0    5.608     2.38       23        9     2093  1206_RCP45_rainfed_15May_sandyloam.PRM
  Tot(78)       15        5     2094   1400.0    327.8   1557.2   535.00      0.0   1400.0      0.0   1169.9      0.0    144.1       78     88.3     88.3      100     0.000     0.000     0.000     0.000      134        0        0        0       18        0        0    18.840       99     30.0    5.652     2.43       30        9     2094  1206_RCP45_rainfed_15May_sandyloam.PRM
  Tot(79)       15        5     2095   1424.1    352.1   1558.9   536.00      0.0   1424.1      0.0   1168.1      0.0    158.1       77    103.2    103.2      100     0.000     0.000     0.000     0.000      128        0        0        0       15        1        0    18.809       99     30.0    5.643     2.18       25        9     2095  1206_RCP45_rainfed_15May_sandyloam.PRM
  Tot(80)       15        5     2096   1179.6    337.5   1565.5   536.00      0.0   1179.6      0.0    955.9      0.0    142.3       75     90.1     90.1      100     0.000     0.000     0.000     0.000      128        0        0        0       15        1       -0    18.629       99     30.0    5.589     2.41       25        9     2096  1206_RCP45_rainfed_15May_sandyloam.PRM
  Tot(81)       15        5     2097   1397.4    343.1   1565.7   537.00      0.0   1397.4      0.0   1167.8      0.0    137.6       68     95.9     95.9      100     0.000     0.000     0.000     0.000      126        0        0        0       13        2        0    18.261       97     30.0    5.478     2.37       23        9     2097  1206_RCP45_rainfed_15May_sandyloam.PRM
  Tot(82)       15        5     2098   1923.7    331.0   1559.9   537.00      0.0   1923.7      0.0   1678.3      0.0    154.2       82     88.4     88.4      100     0.000     0.000     0.000     0.000      130        0        0        0       16        0        0    18.709       99     30.0    5.613     2.32       28        9     2098  1206_RCP45_rainfed_15May_sandyloam.PRM
  Tot(83)       15        5     2099   1127.1    361.3   1557.3   538.00      0.0   1127.1      0.0    870.7      0.0    150.4       82    108.3    108.3      100     0.000     0.000     0.000     0.000      135        0        0        0       19        0        0    18.898       99     30.0    5.669     2.19        2       10     2099  1206_RCP45_rainfed_15May_sandyloam.PRM
