AquaCrop 6.0 (March 2017) - Output created on (date) : 07/06/2021   at (time) : 19:58:36

    RunNr     Day1   Month1    Year1     Rain      ETo       GD     CO2      Irri   Infilt   Runoff    Drain   Upflow        E     E/Ex       Tr      TrW   Tr/Trx    SaltIn   SaltOut    SaltUp  SaltProf     Cycle   SaltStr  FertStr  WeedStr  TempStr   ExpStr   StoStr  BioMass  Brelative   HI     Yield     WPet     DayN   MonthN    YearN
                                           mm       mm    °C.day    ppm        mm       mm       mm       mm       mm       mm        %       mm       mm        %    ton/ha    ton/ha    ton/ha    ton/ha      days       %        %        %        %        %        %    ton/ha        %       %    ton/ha    kg/m3
   Tot(1)       15        5     2017   1872.0    369.4   1560.2   407.00      0.0   1872.0      0.0   1588.6      0.0    186.9       95    102.6    102.6      100     0.000     0.000     0.000     0.000      146        0        0        0       23        0       -0    18.498       99     30.0    5.549     1.93       15       10     2017  1206_RCP85_rainfed_15May_sandyloam.PRM
   Tot(2)       15        5     2018   1552.8    348.5   1558.0   410.00      0.0   1552.8      0.0   1304.9      0.0    147.4       75    101.1    101.1      100     0.000     0.000     0.000     0.000      138        0        0        0       19        1        0    18.353       98     30.0    5.506     2.24        6       10     2018  1206_RCP85_rainfed_15May_sandyloam.PRM
   Tot(3)       15        5     2019   1664.9    372.4   1564.3   413.00      0.0   1664.9      0.0   1375.7      0.0    179.0       76    109.3    109.3      100     0.000     0.000     0.000     0.000      129        0        0        0       14        2        0    17.974       98     30.0    5.392     1.88       27        9     2019  1206_RCP85_rainfed_15May_sandyloam.PRM
   Tot(4)       15        5     2020   1555.7    349.7   1562.0   416.00      0.0   1555.7      0.0   1311.6      0.0    150.8       72     90.0     90.0      100     0.000     0.000     0.000     0.000      141        0        0        0       21        1        0    18.188       97     30.0    5.456     2.28        9       10     2020  1206_RCP85_rainfed_15May_sandyloam.PRM
   Tot(5)       15        5     2021   1654.4    391.6   1559.2   419.00      0.0   1654.4      0.0   1420.3      0.0    154.9       68     95.9     95.9      100     0.000     0.000     0.000     0.000      145        0        0        0       23        1        0    18.278       98     30.0    5.484     2.19       14       10     2021  1206_RCP85_rainfed_15May_sandyloam.PRM
   Tot(6)       15        5     2022   1205.3    402.9   1557.6   422.00      0.0   1205.3      0.0    991.9      0.0    114.2       39     96.8     96.8      100     0.000     0.000     0.000     0.000      124        0        0        0       13       11        0    15.758       87     30.0    4.727     2.25       22        9     2022  1206_RCP85_rainfed_15May_sandyloam.PRM
   Tot(7)       15        5     2023   1535.7    353.7   1558.8   425.00      0.0   1535.7      0.0   1264.2      0.0    180.3       95    102.2    102.2      100     0.000     0.000     0.000     0.000      143        0        0        0       22        0        0    18.681       99     30.0    5.604     1.99       12       10     2023  1206_RCP85_rainfed_15May_sandyloam.PRM
   Tot(8)       15        5     2024   1939.9    343.7   1558.5   428.00      0.0   1939.9      0.0   1707.4      0.0    150.6       76     92.8     92.8      100     0.000     0.000     0.000     0.000      140        0        0        0       20        0        0    18.576       99     30.0    5.573     2.30        8       10     2024  1206_RCP85_rainfed_15May_sandyloam.PRM
   Tot(9)       15        5     2025   1262.3    363.9   1564.4   431.00      0.0   1262.3      0.0    977.6      0.0    173.1       83    109.6    109.6      100     0.000     0.000     0.000     0.000      137        0        0        0       18        0        0    18.578       99     30.0    5.573     1.98        5       10     2025  1206_RCP85_rainfed_15May_sandyloam.PRM
  Tot(10)       15        5     2026   1485.3    423.3   1557.4   435.00      0.0   1485.3      0.0   1273.9      0.0    117.1       38     98.1     98.1      100     0.000     0.000     0.000     0.000      122        0        0        0       12       14       -0    15.350       85     30.0    4.605     2.14       19        9     2026  1206_RCP85_rainfed_15May_sandyloam.PRM
  Tot(11)       15        5     2027   1411.9    378.3   1563.8   438.00      0.0   1411.9      0.0   1144.6      0.0    165.3       71    103.9    103.9      100     0.000     0.000     0.000     0.000      137        0        0        0       19        1        0    18.386       98     30.0    5.516     2.06        5       10     2027  1206_RCP85_rainfed_15May_sandyloam.PRM
  Tot(12)       15        5     2028   1823.7    358.8   1560.8   442.00      0.0   1823.7      0.0   1588.1      0.0    155.8       68     82.3     82.3      100     0.000     0.000     0.000     0.000      137        0        0        0       19        2        0    18.385       98     30.0    5.515     2.34        5       10     2028  1206_RCP85_rainfed_15May_sandyloam.PRM
  Tot(13)       15        5     2029   1450.2    338.9   1565.5   445.00      0.0   1450.2      0.0   1180.9      0.0    170.2       87    103.5    103.5      100     0.000     0.000     0.000     0.000      129        0        0        0       14        0        0    18.630       99     30.0    5.589     2.06       28        9     2029  1206_RCP85_rainfed_15May_sandyloam.PRM
  Tot(14)       15        5     2030   1828.0    353.4   1565.3   449.00      0.0   1828.0      0.0   1545.4      0.0    184.6       83     96.7     96.7      100     0.000     0.000     0.000     0.000      127        0        0        0       12        0        0    18.617       99     30.0    5.585     2.00       25        9     2030  1206_RCP85_rainfed_15May_sandyloam.PRM
  Tot(15)       15        5     2031   1952.4    404.4   1561.4   452.00      0.0   1952.4      0.0   1695.3      0.0    165.9       70    107.8    107.8      100     0.000     0.000     0.000     0.000      133        0        0        0       16        0        0    18.634       99     30.0    5.590     2.05        1       10     2031  1206_RCP85_rainfed_15May_sandyloam.PRM
  Tot(16)       15        5     2032   1577.2    377.0   1564.8   456.00      0.0   1577.2      0.0   1321.3      0.0    162.3       71     97.2     97.2      100     0.000     0.000     0.000     0.000      133        0        0        0       16        2        0    18.284       97     30.0    5.485     2.13       30        9     2032  1206_RCP85_rainfed_15May_sandyloam.PRM
  Tot(17)       15        5     2033   1370.8    377.5   1558.6   460.00      0.0   1370.8      0.0   1107.0      0.0    167.0       72     98.9     98.9      100     0.000     0.000     0.000     0.000      132        0        0        0       17        2        0    18.282       97     30.0    5.485     2.07       30        9     2033  1206_RCP85_rainfed_15May_sandyloam.PRM
  Tot(18)       15        5     2034   2345.7    328.1   1560.5   464.00      0.0   2345.7      0.0   2081.8      0.0    165.6       89    104.2    104.2      100     0.000     0.000     0.000     0.000      139        0        0        0       21        0        0    18.555       99     30.0    5.566     2.07        7       10     2034  1206_RCP85_rainfed_15May_sandyloam.PRM
  Tot(19)       15        5     2035   1380.9    384.3   1557.1   468.00      0.0   1380.9      0.0   1092.4      0.0    177.5       81    103.4    103.4      100     0.000     0.000     0.000     0.000      139        0        0        0       19        1        0    18.729       99     30.0    5.619     2.00        6       10     2035  1206_RCP85_rainfed_15May_sandyloam.PRM
  Tot(20)       15        5     2036   1646.4    321.5   1557.4   472.00      0.0   1646.4      0.0   1390.9      0.0    160.3       93     98.7     98.7      100     0.000     0.000     0.000     0.000      132        0        0        0       15        0       -0    18.841       99     30.0    5.652     2.18       29        9     2036  1206_RCP85_rainfed_15May_sandyloam.PRM
  Tot(21)       15        5     2037   2112.3    332.5   1558.0   476.00      0.0   2112.3      0.0   1844.3      0.0    166.2       97    104.1    104.1      100     0.000     0.000     0.000     0.000      143        0        0        0       21        0        0    19.017       99     30.0    5.705     2.12       11       10     2037  1206_RCP85_rainfed_15May_sandyloam.PRM
  Tot(22)       15        5     2038   1751.6    335.5   1557.4   481.00      0.0   1751.6      0.0   1495.7      0.0    160.2       81     98.0     98.0      100     0.000     0.000     0.000     0.000      139        0        0        0       20        0       -0    18.753       99     30.0    5.626     2.18        7       10     2038  1206_RCP85_rainfed_15May_sandyloam.PRM
  Tot(23)       15        5     2039   1296.0    369.0   1563.3   485.00      0.0   1296.0      0.0   1026.0      0.0    163.3       73    107.6    107.6      100     0.000     0.000     0.000     0.000      125        0        0        0       12        2        0    18.361       98     30.0    5.508     2.05       24        9     2039  1206_RCP85_rainfed_15May_sandyloam.PRM
  Tot(24)       15        5     2040   1588.7    338.8   1558.3   489.00      0.0   1588.7      0.0   1348.3      0.0    165.3       86     86.9     86.9      100     0.000     0.000     0.000     0.000      138        0        0        0       19        0        0    18.923       99     30.0    5.677     2.26        5       10     2040  1206_RCP85_rainfed_15May_sandyloam.PRM
  Tot(25)       15        5     2041   1464.3    364.7   1564.3   494.00      0.0   1464.3      0.0   1207.0      0.0    168.5       78    101.5    101.5      100     0.000     0.000     0.000     0.000      127        0        0        0       12        1        0    18.763       99     30.0    5.629     2.09       25        9     2041  1206_RCP85_rainfed_15May_sandyloam.PRM
  Tot(26)       15        5     2042   1010.0    359.1   1558.1   499.00      0.0   1010.0      0.0    743.5      0.0    174.5       79    100.0    100.0      100     0.000     0.000     0.000     0.000      130        0        0        0       15        0        0    18.735       99     30.0    5.621     2.07       28        9     2042  1206_RCP85_rainfed_15May_sandyloam.PRM
  Tot(27)       15        5     2043   2060.5    319.6   1559.4   504.00      0.0   2060.5      0.0   1805.7      0.0    164.5       93     90.4     90.4      100     0.000     0.000     0.000     0.000      140        0        0        0       20        0        0    18.961       99     30.0    5.688     2.25        8       10     2043  1206_RCP85_rainfed_15May_sandyloam.PRM
  Tot(28)       15        5     2044   1836.7    320.5   1562.9   508.00      0.0   1836.7      0.0   1595.1      0.0    157.1       92     93.8     93.8      100     0.000     0.000     0.000     0.000      139        0        0        0       19        0        0    19.128       99     30.0    5.738     2.30        7       10     2044  1206_RCP85_rainfed_15May_sandyloam.PRM
  Tot(29)       15        5     2045   1201.3    344.4   1557.3   513.00      0.0   1201.3      0.0    940.3      0.0    155.5       83    113.6    113.6      100     0.000     0.000     0.000     0.000      130        0        0        0       14        0        0    18.852       99     30.0    5.656     2.10       26        9     2045  1206_RCP85_rainfed_15May_sandyloam.PRM
  Tot(30)       15        5     2046   1635.3    359.6   1558.9   519.00      0.0   1635.3      0.0   1434.5      0.0    118.3       49     87.5     87.5      100     0.000     0.000     0.000     0.000      122        0        0        0       12        5       -0    17.306       92     30.0    5.192     2.55       19        9     2046  1206_RCP85_rainfed_15May_sandyloam.PRM
  Tot(31)       15        5     2047   1478.5    337.8   1563.7   524.00      0.0   1478.5      0.0   1243.1      0.0    146.2       67     90.0     90.0      100     0.000     0.000     0.000     0.000      126        0        0        0       14        3        0    17.905       95     30.0    5.372     2.30       24        9     2047  1206_RCP85_rainfed_15May_sandyloam.PRM
  Tot(32)       15        5     2048   1731.9    303.1   1560.4   529.00      0.0   1731.9      0.0   1488.4      0.0    158.8       94     85.8     85.8      100     0.000     0.000     0.000     0.000      140        0        0        0       21        0       -0    19.167       99     30.0    5.750     2.36        8       10     2048  1206_RCP85_rainfed_15May_sandyloam.PRM
  Tot(33)       15        5     2049   1439.1    312.7   1561.5   535.00      0.0   1439.1      0.0   1188.8      0.0    169.7       96     90.0     90.0      100     0.000     0.000     0.000     0.000      132        0        0        0       15        0        0    19.084       99     30.0    5.725     2.22       30        9     2049  1206_RCP85_rainfed_15May_sandyloam.PRM
  Tot(34)       15        5     2050   2185.4    349.8   1557.6   541.00      0.0   2185.4      0.0   1906.0      0.0    173.7       86    104.6    104.6      100     0.000     0.000     0.000     0.000      129        0        0        0       14        0        0    18.678       99     30.0    5.603     2.02       27        9     2050  1206_RCP85_rainfed_15May_sandyloam.PRM
  Tot(35)       15        5     2051   1070.6    359.0   1566.4   546.00      0.0   1070.6      0.0    850.8      0.0    129.7       55     91.8     91.8      100     0.000     0.000     0.000     0.000      124        0        0        0       12        4        0    17.717       94     30.0    5.315     2.42       21        9     2051  1206_RCP85_rainfed_15May_sandyloam.PRM
  Tot(36)       15        5     2052   1738.6    377.6   1558.5   552.00      0.0   1738.6      0.0   1510.2      0.0    141.1       56     97.1     97.1      100     0.000     0.000     0.000     0.000      120        0        0        0       10        5        0    17.557       94     30.0    5.267     2.23       18        9     2052  1206_RCP85_rainfed_15May_sandyloam.PRM
  Tot(37)       15        5     2053   1175.4    348.0   1558.3   558.00      0.0   1175.4      0.0    893.7      0.0    174.1       84     95.5     95.5      100     0.000     0.000     0.000     0.000      125        0        0        0       11        0        0    18.877       99     30.0    5.663     2.11       23        9     2053  1206_RCP85_rainfed_15May_sandyloam.PRM
  Tot(38)       15        5     2054   1849.9    311.8   1560.0   564.00      0.0   1849.9      0.0   1604.3      0.0    167.6       91     84.5     84.5      100     0.000     0.000     0.000     0.000      130        0        0        0       15        0       -0    19.064       99     30.0    5.719     2.28       28        9     2054  1206_RCP85_rainfed_15May_sandyloam.PRM
  Tot(39)       15        5     2055   1180.0    313.0   1559.5   571.00      0.0   1180.0      0.0    931.2      0.0    151.2       81     97.1     97.1      100     0.000     0.000     0.000     0.000      122        0        0        0       11        0        0    18.597       99     30.0    5.579     2.25       19        9     2055  1206_RCP85_rainfed_15May_sandyloam.PRM
  Tot(40)       15        5     2056   1769.7    324.0   1565.1   577.00      0.0   1769.7      0.0   1536.7      0.0    150.8       80     90.6     90.6      100     0.000     0.000     0.000     0.000      128        0        0        0       13        1        1    18.781       98     30.0    5.634     2.36       25        9     2056  1206_RCP85_rainfed_15May_sandyloam.PRM
  Tot(41)       15        5     2057   1804.3    297.8   1559.6   583.00      0.0   1804.3      0.0   1582.7      0.0    132.7       74     87.5     87.5      100     0.000     0.000     0.000     0.000      121        0        0        0       10        1        0    18.465       98     30.0    5.539     2.52       18        9     2057  1206_RCP85_rainfed_15May_sandyloam.PRM
  Tot(42)       15        5     2058   1685.3    323.0   1560.4   590.00      0.0   1685.3      0.0   1431.5      0.0    160.6       94    100.3    100.3      100     0.000     0.000     0.000     0.000      128        0        0        0       13        0        0    18.956       99     30.0    5.687     2.20       26        9     2058  1206_RCP85_rainfed_15May_sandyloam.PRM
  Tot(43)       15        5     2059   2021.6    336.3   1566.7   597.00      0.0   2021.6      0.0   1787.0      0.0    166.1       83     82.6     82.6      100     0.000     0.000     0.000     0.000      123        0        0        0       11        0        0    18.828       99     30.0    5.648     2.28       20        9     2059  1206_RCP85_rainfed_15May_sandyloam.PRM
  Tot(44)       15        5     2060   1996.6    333.9   1565.2   604.00      0.0   1996.6      0.0   1792.0      0.0    126.2       56     77.4     77.4      100     0.000     0.000     0.000     0.000      125        0        0        0       13        3        0    18.027       95     30.0    5.408     2.68       23        9     2060  1206_RCP85_rainfed_15May_sandyloam.PRM
  Tot(45)       15        5     2061   1466.4    327.6   1560.2   611.00      0.0   1466.4      0.0   1239.6      0.0    144.8       73     86.6     86.6      100     0.000     0.000     0.000     0.000      125        0        0        0       13        1        0    18.723       98     30.0    5.617     2.45       23        9     2061  1206_RCP85_rainfed_15May_sandyloam.PRM
  Tot(46)       15        5     2062   1495.9    320.4   1557.7   618.00      0.0   1495.9      0.0   1242.5      0.0    162.9       81     90.1     90.1      100     0.000     0.000     0.000     0.000      122        0        0        0       11        1        0    18.804       99     30.0    5.641     2.25       20        9     2062  1206_RCP85_rainfed_15May_sandyloam.PRM
  Tot(47)       15        5     2063   1644.9    295.2   1565.5   625.00      0.0   1644.9      0.0   1396.3      0.0    150.6       99     93.4     93.4      100     0.000     0.000     0.000     0.000      126        0        0        0       12        0        0    18.963       99     30.0    5.689     2.34       25        9     2063  1206_RCP85_rainfed_15May_sandyloam.PRM
  Tot(48)       15        5     2064   1337.5    345.2   1559.1   632.00      0.0   1337.5      0.0   1098.8      0.0    131.1       61     94.9     94.9      100     0.000     0.000     0.000     0.000      117        0        0        0        9        2        0    18.098       96     30.0    5.429     2.41       15        9     2064  1206_RCP85_rainfed_15May_sandyloam.PRM
  Tot(49)       15        5     2065   1711.9    288.5   1566.0   639.00      0.0   1711.9      0.0   1479.8      0.0    146.5       88     85.0     85.0      100     0.000     0.000     0.000     0.000      130        0        0        0       14        0        0    18.976       99     30.0    5.693     2.47       28        9     2065  1206_RCP85_rainfed_15May_sandyloam.PRM
  Tot(50)       15        5     2066   1864.9    325.0   1559.2   647.00      0.0   1864.9      0.0   1632.1      0.0    148.3       78     92.0     92.0      100     0.000     0.000     0.000     0.000      121        0        0        0       11        1        0    18.734       98     30.0    5.620     2.36       19        9     2066  1206_RCP85_rainfed_15May_sandyloam.PRM
  Tot(51)       15        5     2067   1909.7    313.3   1558.8   654.00      0.0   1909.7      0.0   1669.0      0.0    152.5       86     91.7     91.7      100     0.000     0.000     0.000     0.000      116        0        0        0        8        0        0    18.783       99     30.0    5.635     2.34       14        9     2067  1206_RCP85_rainfed_15May_sandyloam.PRM
  Tot(52)       15        5     2068   1750.3    303.2   1558.2   662.00      0.0   1750.3      0.0   1515.9      0.0    142.1       87     95.3     95.3      100     0.000     0.000     0.000     0.000      124        0        0        0       12        0        0    18.942       99     30.0    5.683     2.40       22        9     2068  1206_RCP85_rainfed_15May_sandyloam.PRM
  Tot(53)       15        5     2069   1670.2    298.6   1560.5   669.00      0.0   1670.2      0.0   1423.0      0.0    146.4       88     97.6     97.6      100     0.000     0.000     0.000     0.000      118        0        0        0        9        0        0    18.670       99     30.0    5.601     2.31       16        9     2069  1206_RCP85_rainfed_15May_sandyloam.PRM
  Tot(54)       15        5     2070   1773.5    296.2   1559.2   677.00      0.0   1773.5      0.0   1525.3      0.0    155.7       97     92.3     92.3      100     0.000     0.000     0.000     0.000      120        0        0        0        9        0       -0    19.013       99     30.0    5.704     2.33       18        9     2070  1206_RCP85_rainfed_15May_sandyloam.PRM
  Tot(55)       15        5     2071   1698.8    282.6   1564.3   685.00      0.0   1698.8      0.0   1474.6      0.0    143.1       92     85.2     85.2      100     0.000     0.000     0.000     0.000      125        0        0        0       11        0        0    19.074       99     30.0    5.722     2.52       23        9     2071  1206_RCP85_rainfed_15May_sandyloam.PRM
  Tot(56)       15        5     2072   1848.7    284.7   1564.4   693.00      0.0   1848.7      0.0   1625.0      0.0    147.8       97     81.9     81.9      100     0.000     0.000     0.000     0.000      120        0        0        0        9        0        0    18.977       99     30.0    5.693     2.51       18        9     2072  1206_RCP85_rainfed_15May_sandyloam.PRM
  Tot(57)       15        5     2073   1228.5    348.9   1561.9   701.00      0.0   1228.5      0.0   1024.5      0.0    120.1       52     84.9     84.9      100     0.000     0.000     0.000     0.000      113        0        0        0        8        5        0    17.411       93     30.0    5.223     2.57       10        9     2073  1206_RCP85_rainfed_15May_sandyloam.PRM
  Tot(58)       15        5     2074   1363.5    350.5   1566.8   709.00      0.0   1363.5      0.0   1076.5      0.0    190.6       95    100.5    100.5      100     0.000     0.000     0.000     0.000      117        0        0        0        8        0        0    18.733       99     30.0    5.620     1.95       15        9     2074  1206_RCP85_rainfed_15May_sandyloam.PRM
  Tot(59)       15        5     2075   1980.0    336.6   1562.8   717.00      0.0   1980.0      0.0   1706.8      0.0    164.1       82    105.7    105.7      100     0.000     0.000     0.000     0.000      112        0        0        0        7        1        0    18.347       99     30.0    5.504     2.05       10        9     2075  1206_RCP85_rainfed_15May_sandyloam.PRM
  Tot(60)       15        5     2076   1921.0    250.4   1559.7   725.00      0.0   1921.0      0.0   1717.4      0.0    127.7       98     78.0     78.0      100     0.000     0.000     0.000     0.000      130        0        0        0       14        0        0    19.278       99     30.0    5.783     2.84       28        9     2076  1206_RCP85_rainfed_15May_sandyloam.PRM
  Tot(61)       15        5     2077   1427.0    284.7   1566.6   733.00      0.0   1427.0      0.0   1221.0      0.0    131.3       79     82.5     82.5      100     0.000     0.000     0.000     0.000      119        0        0        0        9        1        0    18.568       99     30.0    5.570     2.63       17        9     2077  1206_RCP85_rainfed_15May_sandyloam.PRM
  Tot(62)       15        5     2078   2225.7    264.1   1560.6   742.00      0.0   2225.7      0.0   2026.1      0.0    127.9       84     77.9     77.9      100     0.000     0.000     0.000     0.000      119        0        0        0        9        0        0    18.795       99     30.0    5.638     2.77       16        9     2078  1206_RCP85_rainfed_15May_sandyloam.PRM
  Tot(63)       15        5     2079   1401.6    338.0   1568.2   750.00      0.0   1401.6      0.0   1155.2      0.0    134.7       69     96.7     96.7      100     0.000     0.000     0.000     0.000      117        0        0        0        8        1        0    18.370       98     30.0    5.511     2.40       14        9     2079  1206_RCP85_rainfed_15May_sandyloam.PRM
  Tot(64)       15        5     2080   1755.9    304.3   1560.0   758.00      0.0   1755.9      0.0   1528.8      0.0    146.2       83     91.9     91.9      100     0.000     0.000     0.000     0.000      112        0        0        0        6        0        0    18.473       99     30.0    5.542     2.34       10        9     2080  1206_RCP85_rainfed_15May_sandyloam.PRM
  Tot(65)       15        5     2081   1921.8    270.9   1558.7   767.00      0.0   1921.8      0.0   1691.2      0.0    144.0       97     84.6     84.6      100     0.000     0.000     0.000     0.000      117        0        0        0        8        0        0    18.686       99     30.0    5.606     2.46       14        9     2081  1206_RCP85_rainfed_15May_sandyloam.PRM
  Tot(66)       15        5     2082   1703.7    274.1   1566.2   775.00      0.0   1703.7      0.0   1490.8      0.0    129.9       94     88.7     88.7      100     0.000     0.000     0.000     0.000      123        0        0        0       10        0        0    18.986       99     30.0    5.696     2.63       22        9     2082  1206_RCP85_rainfed_15May_sandyloam.PRM
  Tot(67)       15        5     2083   1391.9    337.9   1557.8   784.00      0.0   1391.9      0.0   1150.0      0.0    159.8       76     93.1     93.1      100     0.000     0.000     0.000     0.000      110        0        0        0        6        1        0    18.131       99     30.0    5.439     2.16        7        9     2083  1206_RCP85_rainfed_15May_sandyloam.PRM
  Tot(68)       15        5     2084   1766.2    294.6   1563.7   792.00      0.0   1766.2      0.0   1513.0      0.0    169.7       93     86.9     86.9      100     0.000     0.000     0.000     0.000      113        0        0        0        7        0        0    18.295       99     30.0    5.488     2.16       10        9     2084  1206_RCP85_rainfed_15May_sandyloam.PRM
  Tot(69)       15        5     2085   1767.2    288.0   1568.3   801.00      0.0   1767.2      0.0   1562.6      0.0    127.2       78     83.0     83.0      100     0.000     0.000     0.000     0.000      120        0        0        0       10        0        0    18.759       99     30.0    5.628     2.72       17        9     2085  1206_RCP85_rainfed_15May_sandyloam.PRM
  Tot(70)       15        5     2086   1202.6    279.0   1566.5   810.00      0.0   1202.6      0.0    979.6      0.0    143.2       85     78.8     78.8      100     0.000     0.000     0.000     0.000      112        0        0        0        6        0        0    18.290       99     30.0    5.487     2.49       10        9     2086  1206_RCP85_rainfed_15May_sandyloam.PRM
  Tot(71)       15        5     2087   1187.5    283.8   1568.2   818.00      0.0   1187.5      0.0    962.0      0.0    143.2       81     81.4     81.4      100     0.000     0.000     0.000     0.000      109        0        0        0        5        1        0    17.886       98     30.0    5.366     2.41        6        9     2087  1206_RCP85_rainfed_15May_sandyloam.PRM
  Tot(72)       15        5     2088   2082.8    291.7   1564.7   827.00      0.0   2082.8      0.0   1850.1      0.0    149.9       88     81.6     81.6      100     0.000     0.000     0.000     0.000      112        0        0        0        6        1        0    18.360       99     30.0    5.508     2.40       11        9     2088  1206_RCP85_rainfed_15May_sandyloam.PRM
  Tot(73)       15        5     2089   1526.9    257.1   1562.6   836.00      0.0   1526.9      0.0   1297.4      0.0    135.7       97     80.9     80.9      100     0.000     0.000     0.000     0.000      113        0        0        0        6        0       -0    18.369       99     30.0    5.511     2.57       10        9     2089  1206_RCP85_rainfed_15May_sandyloam.PRM
  Tot(74)       15        5     2090   1461.9    281.8   1559.1   845.00      0.0   1461.9      0.0   1225.0      0.0    127.3       76     81.7     81.7      100     0.000     0.000     0.000     0.000      112        0        0        0        6        0        0    18.492       99     30.0    5.548     2.67        9        9     2090  1206_RCP85_rainfed_15May_sandyloam.PRM
  Tot(75)       15        5     2091   1483.7    300.1   1559.6   854.00      0.0   1483.7      0.0   1296.2      0.0    116.9       56     72.1     72.1      100     0.000     0.000     0.000     0.000      106        0        0        0        5        3        0    17.256       95     30.0    5.177     2.77        3        9     2091  1206_RCP85_rainfed_15May_sandyloam.PRM
  Tot(76)       15        5     2092   1811.2    307.4   1557.4   863.00      0.0   1811.2      0.0   1598.0      0.0    130.2       73     86.2     86.2      100     0.000     0.000     0.000     0.000      113        0        0        0        6        1        0    17.987       97     30.0    5.396     2.49        9        9     2092  1206_RCP85_rainfed_15May_sandyloam.PRM
  Tot(77)       15        5     2093   1452.6    264.0   1568.7   872.00      0.0   1452.6      0.0   1230.5      0.0    133.7       96     89.8     89.8      100     0.000     0.000     0.000     0.000      109        0        0        0        5        0        0    18.072       99     30.0    5.421     2.45        6        9     2093  1206_RCP85_rainfed_15May_sandyloam.PRM
  Tot(78)       15        5     2094   1426.8    252.3   1565.3   881.00      0.0   1426.8      0.0   1216.9      0.0    133.6       97     77.3     77.3      100     0.000     0.000     0.000     0.000      117        0        0        0        9        0        0    18.463       99     30.0    5.539     2.65       14        9     2094  1206_RCP85_rainfed_15May_sandyloam.PRM
  Tot(79)       15        5     2095   1743.4    255.8   1560.1   890.00      0.0   1743.4      0.0   1541.1      0.0    126.9       86     76.1     76.1      100     0.000     0.000     0.000     0.000      112        0        0        0        6        0        0    18.276       99     30.0    5.483     2.73        9        9     2095  1206_RCP85_rainfed_15May_sandyloam.PRM
  Tot(80)       15        5     2096   1382.5    307.2   1565.4   899.00      0.0   1382.5      0.0   1172.5      0.0    133.1       71     83.5     83.5      100     0.000     0.000     0.000     0.000      110        0        0        0        5        1        0    17.893       98     30.0    5.368     2.51        8        9     2096  1206_RCP85_rainfed_15May_sandyloam.PRM
  Tot(81)       15        5     2097   1605.5    253.2   1565.0   908.00      0.0   1605.5      0.0   1399.4      0.0    127.6       96     79.4     79.4      100     0.000     0.000     0.000     0.000      113        0        0        0        6        0        0    18.269       99     30.0    5.481     2.68       10        9     2097  1206_RCP85_rainfed_15May_sandyloam.PRM
  Tot(82)       15        5     2098   1506.4    250.4   1564.0   917.00      0.0   1506.4      0.0   1290.9      0.0    124.2       89     78.7     78.7      100     0.000     0.000     0.000     0.000      111        0        0        0        6        0        0    18.131       99     30.0    5.439     2.69        9        9     2098  1206_RCP85_rainfed_15May_sandyloam.PRM
  Tot(83)       15        5     2099   2115.5    266.4   1566.9   927.00      0.0   2115.5      0.0   1895.6      0.0    132.5       98     88.1     88.1      100     0.000     0.000     0.000     0.000      112        0        0        0        6        0        1    17.898       99     30.0    5.369     2.46        9        9     2099  1206_RCP85_rainfed_15May_sandyloam.PRM
