AquaCrop 6.0 (March 2017) - Output created on (date) : 28/06/2021   at (time) : 13:46:32

    RunNr     Day1   Month1    Year1     Rain      ETo       GD     CO2      Irri   Infilt   Runoff    Drain   Upflow        E     E/Ex       Tr      TrW   Tr/Trx    SaltIn   SaltOut    SaltUp  SaltProf     Cycle   SaltStr  FertStr  WeedStr  TempStr   ExpStr   StoStr  BioMass  Brelative   HI     Yield     WPet     DayN   MonthN    YearN
                                           mm       mm    °C.day    ppm        mm       mm       mm       mm       mm       mm        %       mm       mm        %    ton/ha    ton/ha    ton/ha    ton/ha      days       %        %        %        %        %        %    ton/ha        %       %    ton/ha    kg/m3
   Tot(1)       15        4     2017   1869.6    386.9   1563.6   407.00     37.9   1869.6      0.0   1595.1      0.0    204.6       82    107.1    107.1      100     0.000     0.000     0.000     0.000      140        0        0        0       19        0        0    18.519       99     30.0    5.556     1.79        8        9     2017  1206_RCP85_net_15April_loam.PRM
   Tot(2)       15        4     2018   1498.0    416.5   1564.9   410.00    139.7   1498.0      0.0   1313.1      0.0    212.1       75    110.1    110.1      100     0.000     0.000     0.000     0.000      133        0        0        0       17        0        0    18.201       99     30.0    5.460     1.71        4        9     2018  1206_RCP85_net_15April_loam.PRM
   Tot(3)       15        4     2019   1563.0    463.4   1563.2   413.00    152.4   1563.0      0.0   1304.1      0.0    239.2       83    167.5    167.5      100     0.000     0.000     0.000     0.000      123        0        0        0       11        0        0    17.829       99     30.0    5.349     1.32       24        8     2019  1206_RCP85_net_15April_loam.PRM
   Tot(4)       15        4     2020   1492.8    388.8   1558.2   416.00    101.2   1492.8      0.0   1263.6      0.0    222.9       86    110.2    110.2      100     0.000     0.000     0.000     0.000      134        0        0        0       17        0        0    18.271       99     30.0    5.481     1.66        3        9     2020  1206_RCP85_net_15April_loam.PRM
   Tot(5)       15        4     2021   1673.0    415.2   1564.3   419.00    124.5   1673.0      0.0   1450.2      0.0    240.4       85    109.1    109.1      100     0.000     0.000     0.000     0.000      137        0        0        0       18        0        0    18.383       99     30.0    5.515     1.59        7        9     2021  1206_RCP85_net_15April_loam.PRM
   Tot(6)       15        4     2022    935.0    505.5   1562.6   422.00    279.5    935.0      0.0    717.4      0.0    251.7       82    197.4    197.4      100     0.000     0.000     0.000     0.000      120        0        0        0       11        1        0    17.014       99     30.0    5.105     1.14       20        8     2022  1206_RCP85_net_15April_loam.PRM
   Tot(7)       15        4     2023   1433.3    419.0   1558.7   425.00    106.4   1433.3      0.0   1187.6      0.0    215.7       75    104.7    104.7      100     0.000     0.000     0.000     0.000      135        0        0        0       17        0        0    18.447       99     30.0    5.534     1.73        6        9     2023  1206_RCP85_net_15April_loam.PRM
   Tot(8)       15        4     2024   1812.9    396.5   1557.1   428.00     96.4   1812.9      0.0   1566.0      0.0    195.0       73    114.1    114.1      100     0.000     0.000     0.000     0.000      130        0        0        0       14        0       -0    18.584       99     30.0    5.575     1.80       29        8     2024  1206_RCP85_net_15April_loam.PRM
   Tot(9)       15        4     2025   1138.5    420.6   1565.3   431.00     97.5   1138.5      0.0    875.7      0.0    228.1       87    129.8    129.8      100     0.000     0.000     0.000     0.000      130        0        0        0       14        0        0    18.445       99     30.0    5.534     1.55       31        8     2025  1206_RCP85_net_15April_loam.PRM
  Tot(10)       15        4     2026   1445.8    479.1   1557.7   435.00    226.2   1445.8      0.0   1212.3      0.0    252.0       90    196.3    196.3      100     0.000     0.000     0.000     0.000      120        0        0        0       12        1        0    17.007       99     30.0    5.102     1.14       23        8     2026  1206_RCP85_net_15April_loam.PRM
  Tot(11)       15        4     2027   1305.4    457.0   1560.2   438.00    130.0   1305.4      0.0   1064.6      0.0    217.2       72    135.5    135.5      100     0.000     0.000     0.000     0.000      128        0        0        0       14        0        0    18.355       99     30.0    5.506     1.57       28        8     2027  1206_RCP85_net_15April_loam.PRM
  Tot(12)       15        4     2028   1752.2    399.7   1562.3   442.00    114.3   1752.2      0.0   1506.0      0.0    222.1       86    130.7    130.7      100     0.000     0.000     0.000     0.000      130        0        0        0       15        0        0    18.265       99     30.0    5.479     1.56       30        8     2028  1206_RCP85_net_15April_loam.PRM
  Tot(13)       15        4     2029   1326.9    397.9   1558.3   445.00     67.4   1326.9      0.0   1037.5      0.0    218.9       87    130.3    130.3      100     0.000     0.000     0.000     0.000      126        0        0        0       13        0        0    18.426       99     30.0    5.528     1.59       27        8     2029  1206_RCP85_net_15April_loam.PRM
  Tot(14)       15        4     2030   1672.3    416.8   1560.9   449.00    103.2   1672.3      0.0   1357.5      0.0    216.2       80    136.3    136.3      100     0.000     0.000     0.000     0.000      127        0        0        0       13        0       -0    18.321       99     30.0    5.496     1.56       27        8     2030  1206_RCP85_net_15April_loam.PRM
  Tot(15)       15        4     2031   1953.6    443.7   1560.2   452.00    127.6   1953.6      0.0   1713.5      0.0    247.6       85    126.3    126.3      100     0.000     0.000     0.000     0.000      131        0        0        0       15        0        0    18.306       99     30.0    5.492     1.48        1        9     2031  1206_RCP85_net_15April_loam.PRM
  Tot(16)       15        4     2032   1441.6    427.0   1558.3   456.00    158.4   1441.6      0.0   1233.2      0.0    226.4       82    136.4    136.4      100     0.000     0.000     0.000     0.000      124        0        0        0       13        0       -0    18.173       99     30.0    5.452     1.51       24        8     2032  1206_RCP85_net_15April_loam.PRM
  Tot(17)       15        4     2033   1313.0    433.9   1558.2   460.00    135.1   1313.0      0.0   1084.8      0.0    220.7       77    130.7    130.7      100     0.000     0.000     0.000     0.000      126        0        0        0       13        0        0    18.206       99     30.0    5.462     1.56       26        8     2033  1206_RCP85_net_15April_loam.PRM
  Tot(18)       15        4     2034   2100.6    415.0   1567.1   464.00    112.1   2100.6      0.0   1783.6      0.0    225.0       84    124.9    124.9      100     0.000     0.000     0.000     0.000      127        0        0        0       13        0       -0    18.293       99     30.0    5.488     1.57       28        8     2034  1206_RCP85_net_15April_loam.PRM
  Tot(19)       15        4     2035   1413.0    410.5   1558.3   468.00     80.2   1413.0      0.0   1145.5      0.0    234.9       89    119.0    119.0      100     0.000     0.000     0.000     0.000      134        0        0        0       16        0        0    18.633       99     30.0    5.590     1.58        4        9     2035  1206_RCP85_net_15April_loam.PRM
  Tot(20)       15        4     2036   1574.1    357.3   1567.9   472.00     54.2   1574.1      0.0   1304.9      0.0    203.5       91    114.7    114.7      100     0.000     0.000     0.000     0.000      130        0        0        0       14        0        0    18.486       99     30.0    5.546     1.75       30        8     2036  1206_RCP85_net_15April_loam.PRM
  Tot(21)       15        4     2037   2054.0    397.4   1564.1   476.00    134.0   2054.0      0.0   1811.9      0.0    238.7       90    100.5    100.5      100     0.000     0.000     0.000     0.000      133        0        0        0       16        0        0    18.851       99     30.0    5.655     1.67        3        9     2037  1206_RCP85_net_15April_loam.PRM
  Tot(22)       15        4     2038   1701.7    386.1   1561.7   481.00     73.0   1701.7      0.0   1459.2      0.0    200.4       79    110.6    110.6      100     0.000     0.000     0.000     0.000      133        0        0        0       16        0        0    18.697       99     30.0    5.609     1.82        2        9     2038  1206_RCP85_net_15April_loam.PRM
  Tot(23)       15        4     2039   1231.2    421.6   1566.3   485.00    107.6   1231.2      0.0    967.5      0.0    209.3       84    158.0    158.0      100     0.000     0.000     0.000     0.000      121        0        0        0       11        0        0    17.887       99     30.0    5.366     1.46       21        8     2039  1206_RCP85_net_15April_loam.PRM
  Tot(24)       15        4     2040   1496.8    406.4   1560.6   489.00    156.3   1496.8      0.0   1270.7      0.0    222.8       80    115.1    115.1      100     0.000     0.000     0.000     0.000      127        0        0        0       14        1        0    18.461       99     30.0    5.538     1.64       27        8     2040  1206_RCP85_net_15April_loam.PRM
  Tot(25)       15        4     2041   1417.9    393.3   1566.0   494.00     81.5   1417.9      0.0   1149.9      0.0    202.3       84    137.1    137.1      100     0.000     0.000     0.000     0.000      124        0        0        0       11        0        0    18.488       99     30.0    5.547     1.64       23        8     2041  1206_RCP85_net_15April_loam.PRM
  Tot(26)       15        4     2042    989.8    423.1   1560.6   499.00    100.0    989.8      0.0    715.2      0.0    223.9       83    137.2    137.2      100     0.000     0.000     0.000     0.000      125        0        0        0       12        0        0    18.406       99     30.0    5.522     1.53       24        8     2042  1206_RCP85_net_15April_loam.PRM
  Tot(27)       15        4     2043   1956.2    372.9   1563.4   504.00     67.6   1956.2      0.0   1696.5      0.0    218.1       89    106.1    106.1      100     0.000     0.000     0.000     0.000      130        0        0        0       14        0        0    18.848       99     30.0    5.654     1.75       29        8     2043  1206_RCP85_net_15April_loam.PRM
  Tot(28)       15        4     2044   1868.1    355.3   1564.7   508.00     60.9   1868.1      0.0   1615.8      0.0    195.7       86    100.1    100.1      100     0.000     0.000     0.000     0.000      132        0        0        0       15        0        0    18.806       99     30.0    5.642     1.91       31        8     2044  1206_RCP85_net_15April_loam.PRM
  Tot(29)       15        4     2045   1153.8    400.5   1566.5   513.00    107.3   1153.8      0.0    909.0      0.0    221.5       89    120.5    120.5      100     0.000     0.000     0.000     0.000      126        0        0        0       12        0        0    18.686       99     30.0    5.606     1.64       26        8     2045  1206_RCP85_net_15April_loam.PRM
  Tot(30)       15        4     2046   1426.3    442.3   1559.9   519.00    238.1   1426.3      0.0   1255.3      0.0    212.8       79    167.4    167.4      100     0.000     0.000     0.000     0.000      113        0        0        0        9        1        0    17.169       99     30.0    5.151     1.36       12        8     2046  1206_RCP85_net_15April_loam.PRM
  Tot(31)       15        4     2047   1383.9    405.2   1562.7   524.00    112.6   1383.9      0.0   1110.4      0.0    224.5       89    137.6    137.6      100     0.000     0.000     0.000     0.000      119        0        0        0       10        0        0    18.260       99     30.0    5.478     1.52       19        8     2047  1206_RCP85_net_15April_loam.PRM
  Tot(32)       15        4     2048   1652.4    363.2   1557.0   529.00     86.4   1652.4      0.0   1424.7      0.0    220.9       87     90.3     90.3      100     0.000     0.000     0.000     0.000      129        0        0        0       13        0        0    18.996       99     30.0    5.699     1.83       29        8     2048  1206_RCP85_net_15April_loam.PRM
  Tot(33)       15        4     2049   1402.0    372.3   1562.4   535.00     70.9   1402.0      0.0   1151.5      0.0    212.2       87    106.9    106.9      100     0.000     0.000     0.000     0.000      129        0        0        0       13        0        0    18.623       99     30.0    5.587     1.76       28        8     2049  1206_RCP85_net_15April_loam.PRM
  Tot(34)       15        4     2050   2185.1    392.8   1565.1   541.00     75.5   2185.1      0.0   1872.5      0.0    220.2       90    125.0    125.0      100     0.000     0.000     0.000     0.000      125        0        0        0       11        0        0    18.523       99     30.0    5.557     1.61       26        8     2050  1206_RCP85_net_15April_loam.PRM
  Tot(35)       15        4     2051    984.7    407.4   1569.5   546.00    140.2    984.7      0.0    754.7      0.0    214.7       89    149.4    149.4      100     0.000     0.000     0.000     0.000      120        0        0        0       10        0        0    17.719       99     30.0    5.316     1.47       19        8     2051  1206_RCP85_net_15April_loam.PRM
  Tot(36)       15        4     2052   1643.1    443.4   1559.7   552.00    157.2   1643.1      0.0   1402.2      0.0    215.7       83    170.0    170.0      100     0.000     0.000     0.000     0.000      117        0        0        0        9        0        0    17.677       99     30.0    5.303     1.38       17        8     2052  1206_RCP85_net_15April_loam.PRM
  Tot(37)       15        4     2053   1169.3    387.0   1558.5   558.00     70.7   1169.3      0.0    829.4      0.0    205.1       84    126.2    126.2      100     0.000     0.000     0.000     0.000      123        0        0        0       11        0        0    18.618       99     30.0    5.585     1.69       22        8     2053  1206_RCP85_net_15April_loam.PRM
  Tot(38)       15        4     2054   1686.8    386.4   1564.5   564.00     85.7   1686.8      0.0   1432.4      0.0    205.5       80    112.8    112.8      100     0.000     0.000     0.000     0.000      123        0        0        0       11        0       -0    18.600       99     30.0    5.580     1.76       22        8     2054  1206_RCP85_net_15April_loam.PRM
  Tot(39)       15        4     2055   1062.0    381.8   1568.2   571.00     86.7   1062.0      0.0    800.1      0.0    206.0       90    137.0    137.0      100     0.000     0.000     0.000     0.000      115        0        0        0        8        0        0    17.836       99     30.0    5.351     1.56       15        8     2055  1206_RCP85_net_15April_loam.PRM
  Tot(40)       15        4     2056   1703.1    368.9   1567.1   577.00    105.6   1703.1      0.0   1479.3      0.0    215.6       90    109.3    109.3      100     0.000     0.000     0.000     0.000      124        0        0        0       11        0        0    18.712       99     30.0    5.614     1.74       24        8     2056  1206_RCP85_net_15April_loam.PRM
  Tot(41)       15        4     2057   1704.6    373.6   1563.5   583.00    130.6   1704.6      0.0   1480.4      0.0    206.7       83    113.5    113.5      100     0.000     0.000     0.000     0.000      116        0        0        0        8        0       -0    18.212       99     30.0    5.464     1.71       15        8     2057  1206_RCP85_net_15April_loam.PRM
  Tot(42)       15        4     2058   1559.1    374.9   1557.4   590.00     90.9   1559.1      0.0   1332.9      0.0    199.1       82    108.7    108.7      100     0.000     0.000     0.000     0.000      121        0        0        0       10        0        0    18.573       99     30.0    5.572     1.81       20        8     2058  1206_RCP85_net_15April_loam.PRM
  Tot(43)       15        4     2059   1851.2    373.9   1558.1   597.00    104.6   1851.2      0.0   1586.6      0.0    201.2       80    112.8    112.8      100     0.000     0.000     0.000     0.000      116        0        0        0        8        0        0    18.250       99     30.0    5.475     1.75       17        8     2059  1206_RCP85_net_15April_loam.PRM
  Tot(44)       15        4     2060   1692.1    397.4   1557.2   604.00    142.3   1692.1      0.0   1476.9      0.0    201.4       78    124.3    124.3      100     0.000     0.000     0.000     0.000      119        0        0        0        9        0        0    18.197       99     30.0    5.459     1.68       18        8     2060  1206_RCP85_net_15April_loam.PRM
  Tot(45)       15        4     2061   1356.2    376.1   1560.4   611.00     85.7   1356.2      0.0   1110.7      0.0    192.5       84    132.0    132.0      100     0.000     0.000     0.000     0.000      116        0        0        0        8        0        0    18.147       99     30.0    5.444     1.69       15        8     2061  1206_RCP85_net_15April_loam.PRM
  Tot(46)       15        4     2062   1537.7    368.7   1566.5   618.00     51.3   1537.7      0.0   1248.0      0.0    210.2       93    120.0    120.0      100     0.000     0.000     0.000     0.000      121        0        0        0       10        0        0    18.382       99     30.0    5.514     1.68       20        8     2062  1206_RCP85_net_15April_loam.PRM
  Tot(47)       15        4     2063   1617.5    338.2   1569.2   625.00     75.9   1617.5      0.0   1411.0      0.0    187.6       84     95.3     95.3      100     0.000     0.000     0.000     0.000      123        0        0        0       10        0        0    18.945       99     30.0    5.683     2.02       23        8     2063  1206_RCP85_net_15April_loam.PRM
  Tot(48)       15        4     2064   1273.8    413.4   1567.2   632.00    130.6   1273.8      0.0   1043.2      0.0    227.4       85    131.8    131.8      100     0.000     0.000     0.000     0.000      117        0        0        0        8        0        0    18.065       99     30.0    5.420     1.52       17        8     2064  1206_RCP85_net_15April_loam.PRM
  Tot(49)       15        4     2065   1600.3    346.1   1559.3   639.00     44.9   1600.3      0.0   1324.4      0.0    205.1       91     99.4     99.4      100     0.000     0.000     0.000     0.000      122        0        0        0       10        0        0    18.820       99     30.0    5.646     1.86       21        8     2065  1206_RCP85_net_15April_loam.PRM
  Tot(50)       15        4     2066   1876.9    372.4   1564.2   647.00     73.0   1876.9      0.0   1648.1      0.0    186.2       76    115.1    115.1      100     0.000     0.000     0.000     0.000      117        0        0        0        9        0       -0    18.279       99     30.0    5.484     1.83       16        8     2066  1206_RCP85_net_15April_loam.PRM
  Tot(51)       15        4     2067   1887.7    366.7   1560.0   654.00     73.3   1887.7      0.0   1655.1      0.0    192.2       79    110.6    110.6      100     0.000     0.000     0.000     0.000      115        0        0        0        7        0        0    18.263       99     30.0    5.479     1.82       14        8     2067  1206_RCP85_net_15April_loam.PRM
  Tot(52)       15        4     2068   1721.7    352.4   1557.3   662.00     58.8   1721.7      0.0   1476.9      0.0    182.9       83    110.7    110.7      100     0.000     0.000     0.000     0.000      119        0        0        0        9        0       -0    18.483       99     30.0    5.545     1.89       17        8     2068  1206_RCP85_net_15April_loam.PRM
  Tot(53)       15        4     2069   1559.6    355.3   1568.4   669.00     47.9   1559.6      0.0   1304.4      0.0    197.1       86    102.6    102.6      100     0.000     0.000     0.000     0.000      117        0        0        0        8        0        0    18.420       99     30.0    5.526     1.86       18        8     2069  1206_RCP85_net_15April_loam.PRM
  Tot(54)       15        4     2070   1561.2    346.5   1562.3   677.00     56.6   1561.2      0.0   1298.5      0.0    192.7       88    102.0    102.0      100     0.000     0.000     0.000     0.000      117        0        0        0        8        0        0    18.708       99     30.0    5.613     1.92       16        8     2070  1206_RCP85_net_15April_loam.PRM
  Tot(55)       15        4     2071   1770.0    306.6   1560.9   685.00     11.2   1770.0      0.0   1516.3      0.0    175.4       93     92.0     92.0      100     0.000     0.000     0.000     0.000      124        0        0        0       11        0        0    18.889       99     30.0    5.667     2.14       23        8     2071  1206_RCP85_net_15April_loam.PRM
  Tot(56)       15        4     2072   1710.7    310.9   1560.0   693.00     39.3   1710.7      0.0   1446.2      0.0    179.2       88     87.5     87.5      100     0.000     0.000     0.000     0.000      119        0        0        0        9        0        0    18.715       99     30.0    5.615     2.11       17        8     2072  1206_RCP85_net_15April_loam.PRM
  Tot(57)       15        4     2073   1078.5    433.7   1562.3   701.00    232.0   1078.5      0.0    917.2      0.0    209.1       80    164.3    164.3      100     0.000     0.000     0.000     0.000      106        0        0        0        5        1        0    16.903       99     30.0    5.072     1.36        4        8     2073  1206_RCP85_net_15April_loam.PRM
  Tot(58)       15        4     2074   1337.6    376.7   1569.8   709.00     53.2   1337.6      0.0   1061.4      0.0    205.4       90    125.5    125.5      100     0.000     0.000     0.000     0.000      115        0        0        0        8        0       -0    18.156       99     30.0    5.447     1.66       14        8     2074  1206_RCP85_net_15April_loam.PRM
  Tot(59)       15        4     2075   1843.8    418.3   1560.2   717.00     96.0   1843.8      0.0   1587.2      0.0    197.3       78    144.3    144.3      100     0.000     0.000     0.000     0.000      109        0        0        0        6        0        0    17.485       99     30.0    5.246     1.54        7        8     2075  1206_RCP85_net_15April_loam.PRM
  Tot(60)       15        4     2076   1923.6    289.9   1566.0   725.00     24.9   1923.6      0.0   1675.1      0.0    166.6       90     76.8     76.8      100     0.000     0.000     0.000     0.000      124        0        0        0       10        0        0    19.172       99     30.0    5.751     2.38       23        8     2076  1206_RCP85_net_15April_loam.PRM
  Tot(61)       15        4     2077   1440.7    315.5   1557.3   733.00     49.8   1440.7      0.0   1202.5      0.0    173.4       92    108.6    108.6      100     0.000     0.000     0.000     0.000      117        0        0        0        8        0        0    18.406       99     30.0    5.522     1.96       15        8     2077  1206_RCP85_net_15April_loam.PRM
  Tot(62)       15        4     2078   2010.3    355.6   1564.4   742.00    123.2   2010.3      0.0   1826.3      0.0    201.9       82     94.9     94.9      100     0.000     0.000     0.000     0.000      112        0        0        0        6        0        0    18.536       99     30.0    5.561     1.88       10        8     2078  1206_RCP85_net_15April_loam.PRM
  Tot(63)       15        4     2079   1331.3    381.1   1569.7   750.00    104.2   1331.3      0.0   1110.5      0.0    203.3       82    108.8    108.8      100     0.000     0.000     0.000     0.000      114        0        0        0        7        0        0    18.642       99     30.0    5.593     1.80       13        8     2079  1206_RCP85_net_15April_loam.PRM
  Tot(64)       15        4     2080   1705.6    394.4   1561.6   758.00    118.4   1705.6      0.0   1482.7      0.0    215.7       86    117.4    117.4      100     0.000     0.000     0.000     0.000      110        0        0        0        6        0        0    17.871       99     30.0    5.361     1.61        8        8     2080  1206_RCP85_net_15April_loam.PRM
  Tot(65)       15        4     2081   1807.4    334.5   1563.1   767.00     55.8   1807.4      0.0   1570.3      0.0    194.1       87     92.3     92.3      100     0.000     0.000     0.000     0.000      114        0        0        0        7        0        0    18.459       99     30.0    5.538     1.95       13        8     2081  1206_RCP85_net_15April_loam.PRM
  Tot(66)       15        4     2082   1714.0    299.2   1566.3   775.00     28.1   1714.0      0.0   1482.6      0.0    169.1       89     82.1     82.1      100     0.000     0.000     0.000     0.000      121        0        0        0        9        0       -0    18.969       99     30.0    5.691     2.27       20        8     2082  1206_RCP85_net_15April_loam.PRM
  Tot(67)       15        4     2083   1416.4    398.6   1569.7   784.00     70.0   1416.4      0.0   1134.7      0.0    191.1       81    142.6    142.6      100     0.000     0.000     0.000     0.000      109        0        0        0        6        0        0    17.558       99     30.0    5.267     1.59        7        8     2083  1206_RCP85_net_15April_loam.PRM
  Tot(68)       15        4     2084   1616.6    368.9   1566.7   792.00     33.9   1616.6      0.0   1275.3      0.0    208.4       93    123.1    123.1      100     0.000     0.000     0.000     0.000      108        0        0        0        5        0        0    17.393       99     30.0    5.218     1.58        7        8     2084  1206_RCP85_net_15April_loam.PRM
  Tot(69)       15        4     2085   1616.3    331.7   1557.8   801.00     97.3   1616.3      0.0   1398.2      0.0    188.3       87     96.1     96.1      100     0.000     0.000     0.000     0.000      111        0        0        0        6        0        0    18.438       99     30.0    5.531     1.96       11        8     2085  1206_RCP85_net_15April_loam.PRM
  Tot(70)       15        4     2086   1032.7    333.5   1559.7   810.00     71.2   1032.7      0.0    790.3      0.0    163.8       83    117.2    117.2      100     0.000     0.000     0.000     0.000      108        0        0        0        5        0        0    17.753       99     30.0    5.326     1.90        6        8     2086  1206_RCP85_net_15April_loam.PRM
  Tot(71)       15        4     2087   1016.0    334.5   1560.6   818.00     40.5   1016.0      0.0    730.8      0.0    173.9       91    123.0    123.0      100     0.000     0.000     0.000     0.000      106        0        0        0        4        0        0    17.486       99     30.0    5.246     1.77        4        8     2087  1206_RCP85_net_15April_loam.PRM
  Tot(72)       15        4     2088   1957.9    352.4   1562.1   827.00     57.0   1957.9      0.0   1713.7      0.0    180.9       81    110.8    110.8      100     0.000     0.000     0.000     0.000      109        0        0        0        5        0        0    17.868       99     30.0    5.360     1.85        7        8     2088  1206_RCP85_net_15April_loam.PRM
  Tot(73)       15        4     2089   1255.6    357.6   1567.3   836.00    114.9   1255.6      0.0   1059.8      0.0    202.7       83     97.0     97.0      100     0.000     0.000     0.000     0.000      108        0        0        0        5        1        0    18.015       99     30.0    5.404     1.82        7        8     2089  1206_RCP85_net_15April_loam.PRM
  Tot(74)       15        4     2090   1287.6    370.4   1557.7   845.00    130.7   1287.6      0.0   1077.3      0.0    215.8       87    108.9    108.9      100     0.000     0.000     0.000     0.000      107        0        0        0        5        0        0    17.768       99     30.0    5.330     1.65        6        8     2090  1206_RCP85_net_15April_loam.PRM
  Tot(75)       15        4     2091   1382.9    366.6   1568.1   854.00    102.2   1382.9      0.0   1151.4      0.0    199.9       90    128.8    128.8      100     0.000     0.000     0.000     0.000      104        0        0        0        4        0        0    16.864       99     30.0    5.059     1.55        4        8     2091  1206_RCP85_net_15April_loam.PRM
  Tot(76)       15        4     2092   1876.7    326.8   1567.3   863.00     54.3   1876.7      0.0   1640.1      0.0    187.0       93    103.1    103.1      100     0.000     0.000     0.000     0.000      111        0        0        0        6        0        0    18.197       99     30.0    5.459     1.90       10        8     2092  1206_RCP85_net_15April_loam.PRM
  Tot(77)       15        4     2093    942.4    339.9   1557.9   872.00     72.5    942.4      0.0    701.3      0.0    197.2       88     94.8     94.8      100     0.000     0.000     0.000     0.000      105        0        0        0        4        0        0    17.656       99     30.0    5.297     1.83        4        8     2093  1206_RCP85_net_15April_loam.PRM
  Tot(78)       15        4     2094   1338.2    314.1   1566.3   881.00     37.0   1338.2      0.0   1046.6      0.0    186.2       93     90.0     90.0      100     0.000     0.000     0.000     0.000      110        0        0        0        5        0        0    17.955       99     30.0    5.387     1.96       10        8     2094  1206_RCP85_net_15April_loam.PRM
  Tot(79)       15        4     2095   1604.2    294.2   1561.3   890.00     17.6   1604.2      0.0   1309.1      0.0    167.1       97     97.5     97.5      100     0.000     0.000     0.000     0.000      110        0        0        0        5        0        0    18.155       99     30.0    5.446     2.06        9        8     2095  1206_RCP85_net_15April_loam.PRM
  Tot(80)       15        4     2096   1337.4    361.3   1562.6   899.00     55.1   1337.4      0.0   1054.4      0.0    198.4       91    115.9    115.9      100     0.000     0.000     0.000     0.000      108        0        0        0        5        0        0    17.729       99     30.0    5.319     1.70        7        8     2096  1206_RCP85_net_15April_loam.PRM
  Tot(81)       15        4     2097   1555.4    309.4   1558.6   908.00     51.5   1555.4      0.0   1319.3      0.0    178.2       88     85.9     85.9      100     0.000     0.000     0.000     0.000      109        0        0        0        5        0        0    18.225       99     30.0    5.467     2.08        7        8     2097  1206_RCP85_net_15April_loam.PRM
  Tot(82)       15        4     2098   1293.5    307.6   1567.5   917.00     15.2   1293.5      0.0   1036.1      0.0    170.2       89     91.6     91.6      100     0.000     0.000     0.000     0.000      109        0        0        0        5        0        0    17.884       99     30.0    5.365     2.06        7        8     2098  1206_RCP85_net_15April_loam.PRM
  Tot(83)       15        4     2099   1923.8    321.6   1568.9   927.00     42.8   1923.8      0.0   1666.9      0.0    175.8       84     85.7     85.7      100     0.000     0.000     0.000     0.000      107        0        0        0        4        0        0    18.001       99     30.0    5.400     2.08        6        8     2099  1206_RCP85_net_15April_loam.PRM
