AquaCrop 6.0 (March 2017) - Output created on (date) : 28/06/2021   at (time) : 14:12:07

    RunNr     Day1   Month1    Year1     Rain      ETo       GD     CO2      Irri   Infilt   Runoff    Drain   Upflow        E     E/Ex       Tr      TrW   Tr/Trx    SaltIn   SaltOut    SaltUp  SaltProf     Cycle   SaltStr  FertStr  WeedStr  TempStr   ExpStr   StoStr  BioMass  Brelative   HI     Yield     WPet     DayN   MonthN    YearN
                                           mm       mm    °C.day    ppm        mm       mm       mm       mm       mm       mm        %       mm       mm        %    ton/ha    ton/ha    ton/ha    ton/ha      days       %        %        %        %        %        %    ton/ha        %       %    ton/ha    kg/m3
   Tot(1)       15        4     2017    854.3    420.6   1557.0   407.00    171.4    854.3      0.0    629.0      0.0    175.2       69    175.3    175.3      100     0.000     0.000     0.000     0.000       87        0        0        0        0        1        0    14.093       99     30.0    4.228     1.21       14        7     2017  1212_RCP85_net_15April_sandyloam.PRM
   Tot(2)       15        4     2018    981.1    446.2   1558.4   410.00    266.5    981.1      0.0    883.7      0.0    164.6       60    191.7    191.7      100     0.000     0.000     0.000     0.000       86        0        0        0        1        2        0    13.762       98     30.0    4.129     1.16       15        7     2018  1212_RCP85_net_15April_sandyloam.PRM
   Tot(3)       15        4     2019    111.1    596.6   1573.5   413.00    389.1    111.1      0.0     22.1      0.0    210.6       68    268.1    268.1      100     0.000     0.000     0.000     0.000       77        0        0        0        0        2        0    12.332       98     28.2    3.483     0.73        6        7     2019  1212_RCP85_net_15April_sandyloam.PRM
   Tot(4)       15        4     2020    470.9    475.6   1557.2   416.00    313.5    470.9      0.0    365.9      0.0    183.9       71    223.8    223.8      100     0.000     0.000     0.000     0.000       82        0        0        0        0        2        0    12.892       98     30.0    3.869     0.95        9        7     2020  1212_RCP85_net_15April_sandyloam.PRM
   Tot(5)       15        4     2021    731.6    487.1   1567.0   419.00    288.3    731.6      0.0    590.4      0.0    176.5       63    217.5    217.5      100     0.000     0.000     0.000     0.000       85        0        0        0        1        2        0    13.514       98     30.0    4.056     1.03       13        7     2021  1212_RCP85_net_15April_sandyloam.PRM
   Tot(6)       15        4     2022     37.3    666.7   1562.8   422.00    514.8     37.3      0.0      0.0      0.0    241.3       72    301.7    301.7      100     0.000     0.000     0.000     0.000       75        0        0        0        0        3        0    12.010       97     21.2    2.543     0.47        3        7     2022  1212_RCP85_net_15April_sandyloam.PRM
   Tot(7)       15        4     2023    671.5    456.0   1560.0   425.00    248.0    671.5      0.0    546.3      0.0    175.9       62    186.3    186.3      100     0.000     0.000     0.000     0.000       86        0        0        0        1        2        0    13.690       98     30.0    4.108     1.14       15        7     2023  1212_RCP85_net_15April_sandyloam.PRM
   Tot(8)       15        4     2024    684.7    456.0   1570.3   428.00    227.8    684.7      0.0    539.0      0.0    169.7       60    184.0    184.0      100     0.000     0.000     0.000     0.000       84        0        0        0        0        2        0    13.543       98     30.0    4.063     1.15       12        7     2024  1212_RCP85_net_15April_sandyloam.PRM
   Tot(9)       15        4     2025    372.6    469.6   1559.5   431.00    323.8    372.6      0.0    256.1      0.0    200.8       77    221.7    221.7      100     0.000     0.000     0.000     0.000       82        0        0        0        0        2        0    12.989       98     30.0    3.900     0.92       10        7     2025  1212_RCP85_net_15April_sandyloam.PRM
  Tot(10)       15        4     2026     71.2    597.6   1562.0   435.00    425.6     71.2      0.0      9.3      0.0    204.9       75    286.1    286.1      100     0.000     0.000     0.000     0.000       75        0        0        0        0        2        0    12.151       99      8.0    0.972     0.20        4        7     2026  1212_RCP85_net_15April_sandyloam.PRM
  Tot(11)       15        4     2027    212.1    553.8   1559.8   438.00    313.3    212.1      0.0     74.3      0.0    182.8       59    245.7    245.7      100     0.000     0.000     0.000     0.000       81        0        0        0        0        2        0    12.975       98     30.0    3.894     0.91        9        7     2027  1212_RCP85_net_15April_sandyloam.PRM
  Tot(12)       15        4     2028    419.7    515.1   1567.5   442.00    332.3    419.7      0.0    277.3      0.0    196.2       73    246.0    246.0      100     0.000     0.000     0.000     0.000       79        0        0        0        0        2        0    12.497       98     30.0    3.752     0.85        7        7     2028  1212_RCP85_net_15April_sandyloam.PRM
  Tot(13)       15        4     2029    311.2    492.0   1570.9   445.00    293.4    311.2      0.0    140.3      0.0    203.6       77    213.7    213.7      100     0.000     0.000     0.000     0.000       79        0        0        0        0        2        0    12.766       99     30.0    3.831     0.92        7        7     2029  1212_RCP85_net_15April_sandyloam.PRM
  Tot(14)       15        4     2030    314.5    522.7   1568.0   449.00    354.5    314.5      0.0    193.1      0.0    213.7       78    248.1    248.1      100     0.000     0.000     0.000     0.000       80        0        0        0        0        2        0    12.729       99     30.0    3.822     0.83        8        7     2030  1212_RCP85_net_15April_sandyloam.PRM
  Tot(15)       15        4     2031    629.9    524.4   1558.4   452.00    332.4    629.9      0.0    469.7      0.0    179.6       62    244.6    244.6      100     0.000     0.000     0.000     0.000       80        0        0        0        0        2        0    12.734       98     22.3    2.835     0.67        9        7     2031  1212_RCP85_net_15April_sandyloam.PRM
  Tot(16)       15        4     2032    482.7    507.5   1566.2   456.00    328.1    482.7      0.0    391.5      0.0    177.1       63    238.5    238.5      100     0.000     0.000     0.000     0.000       81        0        0        0        0        2        0    12.796       98     30.0    3.840     0.93        9        7     2032  1212_RCP85_net_15April_sandyloam.PRM
  Tot(17)       15        4     2033    533.5    541.9   1569.2   460.00    362.2    533.5      0.0    444.5      0.0    189.1       63    247.5    247.5      100     0.000     0.000     0.000     0.000       80        0        0        0        0        2        0    12.616       98     30.0    3.785     0.87        8        7     2033  1212_RCP85_net_15April_sandyloam.PRM
  Tot(18)       15        4     2034    824.5    457.5   1571.3   464.00    255.2    824.5      0.0    649.0      0.0    196.9       71    186.5    186.5      100     0.000     0.000     0.000     0.000       83        0        0        0        0        2        0    13.489       98     30.0    4.051     1.06       11        7     2034  1212_RCP85_net_15April_sandyloam.PRM
  Tot(19)       15        4     2035    500.1    454.5   1570.7   468.00    234.4    500.1      0.0    251.6      0.0    192.3       76    197.6    197.6      100     0.000     0.000     0.000     0.000       83        0        0        0        0        1        0    13.557       99     30.0    4.067     1.04       11        7     2035  1212_RCP85_net_15April_sandyloam.PRM
  Tot(20)       15        4     2036    435.6    429.3   1561.3   472.00    228.7    435.6      0.0    290.4      0.0    199.2       80    175.6    175.6      100     0.000     0.000     0.000     0.000       83        0        0        0        0        1        0    13.798       99     30.0    4.142     1.11       11        7     2036  1212_RCP85_net_15April_sandyloam.PRM
  Tot(21)       15        4     2037    926.3    425.8   1572.3   476.00    264.3    926.3      0.0    786.3      0.0    234.9       86    160.6    160.6      100     0.000     0.000     0.000     0.000       86        0        0        0        0        2        0    14.212       98     30.0    4.264     1.08       14        7     2037  1212_RCP85_net_15April_sandyloam.PRM
  Tot(22)       15        4     2038    839.9    411.3   1568.3   481.00    178.2    839.9      0.0    682.9      0.0    155.9       61    162.4    162.4      100     0.000     0.000     0.000     0.000       86        0        0        0        0        1        0    14.318       98     30.0    4.295     1.35       14        7     2038  1212_RCP85_net_15April_sandyloam.PRM
  Tot(23)       15        4     2039    542.3    532.4   1572.7   485.00    352.0    542.3      0.0    399.5      0.0    213.3       76    244.7    244.7      100     0.000     0.000     0.000     0.000       80        0        0        0        0        2        0    12.875       98     30.0    3.864     0.85        8        7     2039  1212_RCP85_net_15April_sandyloam.PRM
  Tot(24)       15        4     2040    932.3    472.8   1557.1   489.00    254.3    932.3      0.0    796.6      0.0    196.4       68    192.2    192.2      100     0.000     0.000     0.000     0.000       85        0        0        0        1        2        0    13.946       98     30.0    4.184     1.08       12        7     2040  1212_RCP85_net_15April_sandyloam.PRM
  Tot(25)       15        4     2041    612.9    512.8   1566.8   494.00    342.0    612.9      0.0    479.4      0.0    206.1       74    234.5    234.5      100     0.000     0.000     0.000     0.000       80        0        0        0        0        2        0    13.194       98     30.0    3.961     0.90        8        7     2041  1212_RCP85_net_15April_sandyloam.PRM
  Tot(26)       15        4     2042    315.7    479.4   1562.9   499.00    264.7    315.7      0.0    177.2      0.0    173.1       68    222.9    222.9      100     0.000     0.000     0.000     0.000       81        0        0        0        0        2        0    13.335       99     30.0    4.004     1.01        9        7     2042  1212_RCP85_net_15April_sandyloam.PRM
  Tot(27)       15        4     2043    821.8    411.0   1564.3   504.00    228.4    821.8      0.0    682.9      0.0    191.7       74    160.6    160.6      100     0.000     0.000     0.000     0.000       85        0        0        0        0        1        0    14.297       98     30.0    4.290     1.22       13        7     2043  1212_RCP85_net_15April_sandyloam.PRM
  Tot(28)       15        4     2044    673.5    431.4   1559.6   508.00    260.5    673.5      0.0    504.2      0.0    171.5       68    191.4    191.4      100     0.000     0.000     0.000     0.000       82        0        0        0        0        1        0    13.553       99     30.0    4.067     1.12       10        7     2044  1212_RCP85_net_15April_sandyloam.PRM
  Tot(29)       15        4     2045    578.6    450.0   1565.8   513.00    259.2    578.6      0.0    450.1      0.0    189.5       70    176.9    176.9      100     0.000     0.000     0.000     0.000       83        0        0        0        1        2        0    13.915       98     30.0    4.174     1.14       11        7     2045  1212_RCP85_net_15April_sandyloam.PRM
  Tot(30)       15        4     2046    311.2    600.6   1565.7   519.00    437.8    311.2      0.0    234.8      0.0    198.2       64    276.9    276.9      100     0.000     0.000     0.000     0.000       73        0        0        0        0        3        0    11.759       97      0.8    0.100     0.02        1        7     2046  1212_RCP85_net_15April_sandyloam.PRM
  Tot(31)       15        4     2047    523.3    509.2   1565.7   524.00    337.9    523.3      0.0    392.8      0.0    193.4       72    237.8    237.8      100     0.000     0.000     0.000     0.000       79        0        0        0        0        2        0    12.857       98     30.0    3.859     0.90        7        7     2047  1212_RCP85_net_15April_sandyloam.PRM
  Tot(32)       15        4     2048    819.0    427.7   1565.1   529.00    210.5    819.0      0.0    679.9      0.0    174.6       67    170.0    170.0      100     0.000     0.000     0.000     0.000       83        0        0        0        0        1        0    13.819       98     30.0    4.146     1.21       11        7     2048  1212_RCP85_net_15April_sandyloam.PRM
  Tot(33)       15        4     2049    641.2    451.9   1571.8   535.00    217.4    641.2      0.0    460.7      0.0    178.8       68    192.3    192.3      100     0.000     0.000     0.000     0.000       84        0        0        0        1        1        0    13.867       98     30.0    4.163     1.13       12        7     2049  1212_RCP85_net_15April_sandyloam.PRM
  Tot(34)       15        4     2050    465.3    435.7   1561.1   541.00    197.1    465.3      0.0    281.8      0.0    179.4       79    187.9    187.9      100     0.000     0.000     0.000     0.000       83        0        0        0        0        1        0    14.012       99     30.0    4.204     1.15       12        7     2050  1212_RCP85_net_15April_sandyloam.PRM
  Tot(35)       15        4     2051    433.3    486.6   1564.6   546.00    364.8    433.3      0.0    336.2      0.0    183.3       78    252.4    252.4      100     0.000     0.000     0.000     0.000       79        0        0        0        0        2        0    12.314       99      0.4    0.052     0.01        7        7     2051  1212_RCP85_net_15April_sandyloam.PRM
  Tot(36)       15        4     2052    602.0    542.0   1558.3   552.00    373.0    602.0      0.0    479.6      0.0    207.2       76    254.4    254.4      100     0.000     0.000     0.000     0.000       76        0        0        0        0        2        0    12.386       98      9.8    1.208     0.26        4        7     2052  1212_RCP85_net_15April_sandyloam.PRM
  Tot(37)       15        4     2053    482.4    474.5   1561.8   558.00    255.2    482.4      0.0    338.3      0.0    177.1       66    209.8    209.8      100     0.000     0.000     0.000     0.000       81        0        0        0        0        1        0    13.484       99     30.0    4.048     1.05        9        7     2053  1212_RCP85_net_15April_sandyloam.PRM
  Tot(38)       15        4     2054    711.6    486.6   1562.0   564.00    294.0    711.6      0.0    589.6      0.0    185.6       65    202.7    202.7      100     0.000     0.000     0.000     0.000       79        0        0        0        0        2        0    13.080       98     30.0    3.926     1.01        7        7     2054  1212_RCP85_net_15April_sandyloam.PRM
  Tot(39)       15        4     2055    208.5    485.6   1568.8   571.00    308.8    208.5      0.0    105.2      0.0    189.3       74    215.0    215.0      100     0.000     0.000     0.000     0.000       77        0        0        0        0        1        0    12.806       99     28.9    3.698     0.92        5        7     2055  1212_RCP85_net_15April_sandyloam.PRM
  Tot(40)       15        4     2056   1225.4    386.6   1558.2   577.00    208.5   1225.4      0.0   1100.1      0.0    175.0       75    156.8    156.8      100     0.000     0.000     0.000     0.000       84        0        0        0        0        1        0    13.726       98     30.0    4.118     1.25       12        7     2056  1212_RCP85_net_15April_sandyloam.PRM
  Tot(41)       15        4     2057    659.0    467.3   1565.9   583.00    284.1    659.0      0.0    528.0      0.0    174.5       64    197.3    197.3      100     0.000     0.000     0.000     0.000       78        0        0        0        0        2        0    12.717       98     30.0    3.816     1.03        6        7     2057  1212_RCP85_net_15April_sandyloam.PRM
  Tot(42)       15        4     2058    390.1    455.5   1570.2   590.00    249.3    390.1      0.0    247.1      0.0    186.7       69    185.4    185.4      100     0.000     0.000     0.000     0.000       80        0        0        0        0        2        0    13.427       98     30.0    4.030     1.09        8        7     2058  1212_RCP85_net_15April_sandyloam.PRM
  Tot(43)       15        4     2059    661.7    506.9   1559.9   597.00    302.4    661.7      0.0    541.0      0.0    177.5       62    219.1    219.1      100     0.000     0.000     0.000     0.000       76        0        0        0        0        2        0    12.519       98     30.0    3.758     0.95        5        7     2059  1212_RCP85_net_15April_sandyloam.PRM
  Tot(44)       15        4     2060    677.2    482.3   1572.5   604.00    307.4    677.2      0.0    532.7      0.0    186.5       71    220.6    220.6      100     0.000     0.000     0.000     0.000       79        0        0        0        0        2        0    12.616       98     15.2    1.919     0.47        7        7     2060  1212_RCP85_net_15April_sandyloam.PRM
  Tot(45)       15        4     2061    453.9    482.6   1559.2   611.00    300.0    453.9      0.0    347.0      0.0    174.8       67    215.8    215.8      100     0.000     0.000     0.000     0.000       77        0        0        0        0        2        0    12.726       99      4.9    0.628     0.16        5        7     2061  1212_RCP85_net_15April_sandyloam.PRM
  Tot(46)       15        4     2062    656.9    426.8   1563.4   618.00    236.1    656.9      0.0    485.3      0.0    164.3       80    214.4    214.4      100     0.000     0.000     0.000     0.000       81        0        0        0        0        1        0    13.270       99     30.0    3.983     1.05        9        7     2062  1212_RCP85_net_15April_sandyloam.PRM
  Tot(47)       15        4     2063    895.2    377.2   1570.5   625.00    123.1    895.2      0.0    702.4      0.0    172.9       69    131.1    131.1      100     0.000     0.000     0.000     0.000       84        0        0        0        0        1        0    14.189       98     30.0    4.257     1.40       12        7     2063  1212_RCP85_net_15April_sandyloam.PRM
  Tot(48)       15        4     2064    379.7    506.9   1574.6   632.00    326.0    379.7      0.0    279.0      0.0    201.8       73    220.4    220.4      100     0.000     0.000     0.000     0.000       77        0        0        0        0        2        0    12.309       98     15.0    1.846     0.44        5        7     2064  1212_RCP85_net_15April_sandyloam.PRM
  Tot(49)       15        4     2065    830.8    400.6   1558.2   639.00    171.6    830.8      0.0    674.2      0.0    172.7       70    147.9    147.9      100     0.000     0.000     0.000     0.000       82        0        0        0        0        1        0    14.277       99     30.0    4.283     1.34       10        7     2065  1212_RCP85_net_15April_sandyloam.PRM
  Tot(50)       15        4     2066    732.6    484.7   1561.5   647.00    306.4    732.6      0.0    649.4      0.0    169.4       59    201.8    201.8      100     0.000     0.000     0.000     0.000       78        0        0        0        0        2        0    12.987       98     25.3    3.282     0.89        6        7     2066  1212_RCP85_net_15April_sandyloam.PRM
  Tot(51)       15        4     2067    610.6    471.2   1569.3   654.00    266.6    610.6      0.0    503.3      0.0    177.0       64    189.8    189.8      100     0.000     0.000     0.000     0.000       78        0        0        0        0        2        0    12.906       98     30.0    3.872     1.06        6        7     2067  1212_RCP85_net_15April_sandyloam.PRM
  Tot(52)       15        4     2068    764.1    436.6   1562.1   662.00    221.9    764.1      0.0    615.7      0.0    167.2       63    172.8    172.8      100     0.000     0.000     0.000     0.000       78        0        0        0        0        1        0    13.255       98     30.0    3.979     1.17        6        7     2068  1212_RCP85_net_15April_sandyloam.PRM
  Tot(53)       15        4     2069    703.7    398.8   1559.5   669.00    169.6    703.7      0.0    520.4      0.0    173.1       75    164.3    164.3      100     0.000     0.000     0.000     0.000       80        0        0        0        0        1        0    13.693       99     30.0    4.110     1.22        8        7     2069  1212_RCP85_net_15April_sandyloam.PRM
  Tot(54)       15        4     2070    669.5    417.6   1569.5   677.00    184.4    669.5      0.0    509.4      0.0    167.1       67    167.3    167.3      100     0.000     0.000     0.000     0.000       80        0        0        0        0        1        0    13.810       98     30.0    4.143     1.24        8        7     2070  1212_RCP85_net_15April_sandyloam.PRM
  Tot(55)       15        4     2071   1079.6    310.7   1558.5   685.00     98.7   1079.6      0.0    910.2      0.0    146.6       79    123.9    123.9      100     0.000     0.000     0.000     0.000       84        0        0        0        0        0        0    14.570       99     30.0    4.371     1.63       12        7     2071  1212_RCP85_net_15April_sandyloam.PRM
  Tot(56)       15        4     2072    768.6    340.1   1571.6   693.00    112.7    768.6      0.0    600.1      0.0    138.6       65    129.4    129.4      100     0.000     0.000     0.000     0.000       82        0        0        0        0        1        0    13.949       99     30.0    4.185     1.57       10        7     2072  1212_RCP85_net_15April_sandyloam.PRM
  Tot(57)       15        4     2073    269.4    583.3   1558.4   701.00    396.3    269.4      0.0    185.6      0.0    185.5       60    251.7    251.7      100     0.000     0.000     0.000     0.000       71        0        0        0        0        3        0    11.726       97      0.1    0.008     0.00       29        6     2073  1212_RCP85_net_15April_sandyloam.PRM
  Tot(58)       15        4     2074    357.2    498.3   1570.5   709.00    265.3    357.2      0.0    210.4      0.0    203.4       76    208.8    208.8      100     0.000     0.000     0.000     0.000       77        0        0        0        0        1        0    12.936       98     30.0    3.884     0.94        5        7     2074  1212_RCP85_net_15April_sandyloam.PRM
  Tot(59)       15        4     2075    517.3    562.0   1571.5   717.00    346.5    517.3      0.0    415.8      0.0    196.8       65    229.8    229.8      100     0.000     0.000     0.000     0.000       74        0        0        0        0        2        0    12.357       98     16.6    2.045     0.48        2        7     2075  1212_RCP85_net_15April_sandyloam.PRM
  Tot(60)       15        4     2076    966.2    310.3   1561.2   725.00     87.7    966.2      0.0    744.1      0.0    162.8       80    102.8    102.8      100     0.000     0.000     0.000     0.000       84        0        0        0        0        0        0    14.680       99     30.0    4.404     1.66       12        7     2076  1212_RCP85_net_15April_sandyloam.PRM
  Tot(61)       15        4     2077    438.2    408.1   1560.0   733.00    128.2    438.2      0.0    239.2      0.0    173.1       76    156.2    156.2      100     0.000     0.000     0.000     0.000       79        0        0        0        0        1        0    13.787       99     30.0    4.138     1.27        7        7     2077  1212_RCP85_net_15April_sandyloam.PRM
  Tot(62)       15        4     2078    783.4    442.7   1557.9   742.00    272.5    783.4      0.0    670.7      0.0    206.9       76    167.7    167.7      100     0.000     0.000     0.000     0.000       76        0        0        0        0        2        0    13.042       98     30.0    3.913     1.05        4        7     2078  1212_RCP85_net_15April_sandyloam.PRM
  Tot(63)       15        4     2079    594.7    441.3   1567.1   750.00    242.9    594.7      0.0    487.8      0.0    176.3       66    173.3    173.3      100     0.000     0.000     0.000     0.000       78        0        0        0        0        2        0    13.214       98     30.0    3.964     1.14        6        7     2079  1212_RCP85_net_15April_sandyloam.PRM
  Tot(64)       15        4     2080    910.9    455.9   1564.3   758.00    231.1    910.9      0.0    718.7      0.0    167.5       61    168.0    168.0      100     0.000     0.000     0.000     0.000       77        0        0        0        0        1       -0    13.178       98     22.5    2.960     0.88        5        7     2080  1212_RCP85_net_15April_sandyloam.PRM
  Tot(65)       15        4     2081    699.0    413.5   1569.4   767.00    162.8    699.0      0.0    514.2      0.0    181.6       69    145.1    145.1      100     0.000     0.000     0.000     0.000       79        0        0        0        0        1        0    13.609       98     30.0    4.083     1.25        7        7     2081  1212_RCP85_net_15April_sandyloam.PRM
  Tot(66)       15        4     2082   1064.1    305.2   1560.3   775.00    100.2   1064.1      0.0    901.1      0.0    150.2       78    108.8    108.8      100     0.000     0.000     0.000     0.000       83        0        0        0        0        0        0    14.405       99     30.0    4.321     1.67       11        7     2082  1212_RCP85_net_15April_sandyloam.PRM
  Tot(67)       15        4     2083    932.3    503.0   1573.7   784.00    290.4    932.3      0.0    821.5      0.0    173.9       67    223.8    223.8      100     0.000     0.000     0.000     0.000       76        0        0        0        0        1        0    12.655       99     19.5    2.464     0.62        4        7     2083  1212_RCP85_net_15April_sandyloam.PRM
  Tot(68)       15        4     2084    871.2    468.5   1567.3   792.00    249.8    871.2      0.0    661.1      0.0    189.8       77    208.6    208.6      100     0.000     0.000     0.000     0.000       76        0        0        0        0        1        0    12.739       99     10.0    1.278     0.32        4        7     2084  1212_RCP85_net_15April_sandyloam.PRM
  Tot(69)       15        4     2085    557.6    392.6   1574.1   801.00    229.4    557.6      0.0    457.1      0.0    165.0       73    155.5    155.5      100     0.000     0.000     0.000     0.000       78        0        0        0        0        2        0    13.243       99     30.0    3.973     1.25        6        7     2085  1212_RCP85_net_15April_sandyloam.PRM
  Tot(70)       15        4     2086    490.2    419.5   1574.4   810.00    234.5    490.2      0.0    378.2      0.0    158.4       69    177.1    177.1      100     0.000     0.000     0.000     0.000       77        0        0        0        0        1        0    13.168       99     23.4    3.083     0.92        5        7     2086  1212_RCP85_net_15April_sandyloam.PRM
  Tot(71)       15        4     2087    344.3    459.8   1572.7   818.00    198.7    344.3      0.0    184.1      0.0    175.7       71    182.2    182.2      100     0.000     0.000     0.000     0.000       76        0        0        0        0        1        0    13.059       99     30.0    3.921     1.10        3        7     2087  1212_RCP85_net_15April_sandyloam.PRM
  Tot(72)       15        4     2088    419.9    431.7   1557.4   827.00    168.4    419.9      0.0    254.5      0.0    160.4       64    165.6    165.6      100     0.000     0.000     0.000     0.000       77        0        0        0        0        1        0    13.193       98     30.0    3.959     1.21        4        7     2088  1212_RCP85_net_15April_sandyloam.PRM
  Tot(73)       15        4     2089    904.9    444.8   1564.9   836.00    263.1    904.9      0.0    801.9      0.0    185.3       66    159.6    159.6      100     0.000     0.000     0.000     0.000       76        0        0        0        0        2        0    12.900       98     30.0    3.871     1.13        4        7     2089  1212_RCP85_net_15April_sandyloam.PRM
  Tot(74)       15        4     2090    318.9    458.8   1560.4   845.00    288.6    318.9      0.0    216.3      0.0    190.1       70    172.8    172.8      100     0.000     0.000     0.000     0.000       74        0        0        0        0        3        0    12.420       97     30.0    3.728     1.03        2        7     2090  1212_RCP85_net_15April_sandyloam.PRM
  Tot(75)       15        4     2091    581.4    469.2   1568.1   854.00    317.9    581.4      0.0    481.1      0.0    178.4       81    223.4    223.4      100     0.000     0.000     0.000     0.000       74        0        0        0        0        2        0    11.945       99      5.3    0.630     0.16        2        7     2091  1212_RCP85_net_15April_sandyloam.PRM
  Tot(76)       15        4     2092    911.2    398.0   1560.6   863.00    182.6    911.2      0.0    652.0      0.0    185.2       82    163.6    163.6      100     0.000     0.000     0.000     0.000       78        0        0        0        0        1        0    13.288       99     30.0    3.986     1.14        6        7     2092  1212_RCP85_net_15April_sandyloam.PRM
  Tot(77)       15        4     2093    558.1    407.8   1563.2   872.00    210.9    558.1      0.0    438.3      0.0    181.3       71    142.5    142.5      100     0.000     0.000     0.000     0.000       76        0        0        0        0        2        0    12.882       98     30.0    3.865     1.20        4        7     2093  1212_RCP85_net_15April_sandyloam.PRM
  Tot(78)       15        4     2094    789.7    374.3   1569.9   881.00    169.4    789.7      0.0    597.6      0.0    175.0       76    135.6    135.6      100     0.000     0.000     0.000     0.000       78        0        0        0        0        1        0    13.293       99     30.0    3.990     1.29        6        7     2094  1212_RCP85_net_15April_sandyloam.PRM
  Tot(79)       15        4     2095    790.5    339.7   1561.1   890.00    141.4    790.5      0.0    595.2      0.0    152.4       78    130.6    130.6      100     0.000     0.000     0.000     0.000       78        0        0        0        0        1        0    13.443       99     30.0    4.033     1.43        6        7     2095  1212_RCP85_net_15April_sandyloam.PRM
  Tot(80)       15        4     2096    889.0    453.2   1568.3   899.00    240.8    889.0      0.0    717.1      0.0    192.6       75    180.6    180.6      100     0.000     0.000     0.000     0.000       77        0        0        0        0        2        0    12.875       98     30.0    3.865     1.04        5        7     2096  1212_RCP85_net_15April_sandyloam.PRM
  Tot(81)       15        4     2097   1017.0    387.0   1563.7   908.00    194.3   1017.0      0.0    878.2      0.0    190.9       78    129.9    129.9      100     0.000     0.000     0.000     0.000       78        0        0        0        0        1        0    13.368       98     30.0    4.011     1.25        5        7     2097  1212_RCP85_net_15April_sandyloam.PRM
  Tot(82)       15        4     2098    719.8    369.7   1565.1   917.00    135.9    719.8      0.0    552.1      0.0    148.6       65    134.0    134.0      100     0.000     0.000     0.000     0.000       77        0        0        0        0        1        0    13.329       99     30.0    3.999     1.42        5        7     2098  1212_RCP85_net_15April_sandyloam.PRM
  Tot(83)       15        4     2099   1551.5    347.2   1562.9   927.00    126.4   1551.5      0.0   1368.9      0.0    158.3       70    112.8    112.8      100     0.000     0.000     0.000     0.000       78        0        0        0        0        1        0    13.741       99     30.0    4.122     1.52        6        7     2099  1212_RCP85_net_15April_sandyloam.PRM
