AquaCrop 6.0 (March 2017) - Output created on (date) : 07/06/2021   at (time) : 20:02:04

    RunNr     Day1   Month1    Year1     Rain      ETo       GD     CO2      Irri   Infilt   Runoff    Drain   Upflow        E     E/Ex       Tr      TrW   Tr/Trx    SaltIn   SaltOut    SaltUp  SaltProf     Cycle   SaltStr  FertStr  WeedStr  TempStr   ExpStr   StoStr  BioMass  Brelative   HI     Yield     WPet     DayN   MonthN    YearN
                                           mm       mm    °C.day    ppm        mm       mm       mm       mm       mm       mm        %       mm       mm        %    ton/ha    ton/ha    ton/ha    ton/ha      days       %        %        %        %        %        %    ton/ha        %       %    ton/ha    kg/m3
   Tot(1)       15        4     2017    425.0    576.7   1561.7   404.00      0.0    425.0      0.0    295.1      0.0     58.0       10     34.5     34.5       84     0.000     0.000     0.000     0.000       78        0        0        0        0       62       13     1.622       13     14.3    0.233     0.25        6        7     2017  1212_RCP45_rainfed_15April_sandy.PRM
   Tot(2)       15        4     2018    526.0    501.0   1573.3   407.00      0.0    526.0      0.0    313.7      0.0     99.9       25    108.1    108.1       90     0.000     0.000     0.000     0.000       83        0        0        0        0       38        8     6.410       48     30.1    1.928     0.94       11        7     2018  1212_RCP45_rainfed_15April_sandy.PRM
   Tot(3)       15        4     2019     34.4    634.5   1567.8   409.00      0.0     34.4      0.0      0.0      0.0     40.5        6     34.4     34.4       84     0.000     0.000     0.000     0.000       63        0        0        0        0       64       15     1.500       12      9.0    0.135     0.19        3        7     2019  1212_RCP45_rainfed_15April_sandy.PRM
   Tot(4)       15        4     2020    307.2    548.6   1569.8   411.00      0.0    307.2      0.0    125.5      0.0    132.6       24     42.4     42.4       95     0.000     0.000     0.000     0.000       81        0        0        0        0       58        3     2.328       17     29.2    0.681     0.39        9        7     2020  1212_RCP45_rainfed_15April_sandy.PRM
   Tot(5)       15        4     2021    961.7    345.9   1570.9   413.00      0.0    961.7      0.0    728.4      0.0    102.6       45    105.1    105.1       87     0.000     0.000     0.000     0.000       91        0        0        0        1       20        4    12.216       82     30.0    3.665     1.77       20        7     2021  1212_RCP45_rainfed_15April_sandy.PRM
   Tot(6)       15        4     2022    911.0    448.3   1566.1   416.00      0.0    911.0      0.0    669.6      0.0    106.1       34    119.2    119.2       78     0.000     0.000     0.000     0.000       86        0        0        0        1       33       10     8.273       60     30.2    2.498     1.11       14        7     2022  1212_RCP45_rainfed_15April_sandy.PRM
   Tot(7)       15        4     2023    729.9    418.1   1565.7   418.00      0.0    729.9      0.0    441.0      0.0    112.8       32     76.9     76.9       97     0.000     0.000     0.000     0.000       86        0        0        0        1       41        1     7.250       50     30.0    2.175     1.15       14        7     2023  1212_RCP45_rainfed_15April_sandy.PRM
   Tot(8)       15        4     2024    229.6    526.2   1563.3   420.00      0.0    229.6      0.0     88.6      0.0     81.6       16     49.6     49.6       82     0.000     0.000     0.000     0.000       81        0        0        0        0       57       13     2.477       19     30.4    0.753     0.58        9        7     2024  1212_RCP45_rainfed_15April_sandy.PRM
   Tot(9)       15        4     2025    128.8    622.8   1574.8   423.00      0.0    128.8      0.0      5.3      0.0     96.0       15     29.0     29.0       99     0.000     0.000     0.000     0.000       80        0        0        0        0       65        0     1.311       10     -9.9    0.000     0.00        8        7     2025  1212_RCP45_rainfed_15April_sandy.PRM
  Tot(10)       15        4     2026    363.5    529.4   1567.3   425.00      0.0    363.5      0.0    116.7      0.0    108.2       29    113.5    113.5       74     0.000     0.000     0.000     0.000       80        0        0        0        0       32       14     6.494       49     26.9    1.746     0.80        8        7     2026  1212_RCP45_rainfed_15April_sandy.PRM
  Tot(11)       15        4     2027    175.5    593.7   1561.6   428.00      0.0    175.5      0.0     36.4      0.0     91.9       16     39.4     39.4       81     0.000     0.000     0.000     0.000       55        0        0        0        0       58       18     1.740       14      8.1    0.142     0.18        3        7     2027  1212_RCP45_rainfed_15April_sandy.PRM
  Tot(12)       15        4     2028    657.7    447.0   1564.4   430.00      0.0    657.7      0.0    340.6      0.0    106.5       34    105.2    105.2       75     0.000     0.000     0.000     0.000       84        0        0        0        0       33       11     7.448       54     29.2    2.176     1.03       13        7     2028  1212_RCP45_rainfed_15April_sandy.PRM
  Tot(13)       15        4     2029     40.9    619.1   1569.9   433.00      0.0     40.9      0.0      0.0      0.0     54.8        9     40.4     40.4       85     0.000     0.000     0.000     0.000       76        0        0        0        0       60       16     1.905       15     24.3    0.463     0.49        4        7     2029  1212_RCP45_rainfed_15April_sandy.PRM
  Tot(14)       15        4     2030    994.4    445.2   1568.9   435.00      0.0    994.4      0.0    698.8      0.0    111.6       33     99.0     99.0       85     0.000     0.000     0.000     0.000       85        0        0        0        0       40        6     6.921       50     30.6    2.119     1.01       13        7     2030  1212_RCP45_rainfed_15April_sandy.PRM
  Tot(15)       15        4     2031    255.0    605.6   1570.6   438.00      0.0    255.0      0.0     57.2      0.0    122.6       22     42.9     42.9       77     0.000     0.000     0.000     0.000       55        0        0        0        0       53       20     2.025       16      3.9    0.078     0.07        6        7     2031  1212_RCP45_rainfed_15April_sandy.PRM
  Tot(16)       15        4     2032    204.0    559.6   1563.5   440.00      0.0    204.0      0.0      0.0      0.0    105.0       19     35.2     35.2       83     0.000     0.000     0.000     0.000       77        0        0        0        0       60       13     1.760       14     14.3    0.253     0.18        5        7     2032  1212_RCP45_rainfed_15April_sandy.PRM
  Tot(17)       15        4     2033    411.2    487.7   1558.8   443.00      0.0    411.2      0.0    196.7      0.0     98.5       26    107.5    107.5       85     0.000     0.000     0.000     0.000       81        0        0        0        0       38        6     7.363       55     30.1    2.220     1.08        9        7     2033  1212_RCP45_rainfed_15April_sandy.PRM
  Tot(18)       15        4     2034    722.4    392.5   1569.3   445.00      0.0    722.4      0.0    468.5      0.0     95.5       30     90.3     90.3       96     0.000     0.000     0.000     0.000       88        0        0        0        1       33        1     8.937       62     30.0    2.682     1.45       16        7     2034  1212_RCP45_rainfed_15April_sandy.PRM
  Tot(19)       15        4     2035    140.8    550.2   1567.9   448.00      0.0    140.8      0.0      0.0      0.0     96.8       23     89.3     89.3       70     0.000     0.000     0.000     0.000       77        0        0        0        0       41       19     4.840       38     28.8    1.396     0.76        5        7     2035  1212_RCP45_rainfed_15April_sandy.PRM
  Tot(20)       15        4     2036    700.6    421.7   1557.3   450.00      0.0    700.6      0.0    499.7      0.0    126.4       42     79.1     79.1       72     0.000     0.000     0.000     0.000       84        0        0        0        0       38       12     5.596       41     23.5    1.318     0.64       11        7     2036  1212_RCP45_rainfed_15April_sandy.PRM
  Tot(21)       15        4     2037    394.4    487.0   1566.6   453.00      0.0    394.4      0.0    245.0      0.0     99.0       21     42.2     42.2       92     0.000     0.000     0.000     0.000       82        0        0        0        0       58        5     2.406       18     28.2    0.679     0.48       10        7     2037  1212_RCP45_rainfed_15April_sandy.PRM
  Tot(22)       15        4     2038    973.7    480.6   1567.5   456.00      0.0    973.7      0.0    777.0      0.0     99.6       29     92.0     92.0       68     0.000     0.000     0.000     0.000       84        0        0        0        0       36       15     5.785       43     24.7    1.428     0.75       12        7     2038  1212_RCP45_rainfed_15April_sandy.PRM
  Tot(23)       15        4     2039    428.8    400.3   1561.8   458.00      0.0    428.8      0.0    174.8      0.0     96.7       35    117.3    117.3       88     0.000     0.000     0.000     0.000       83        0        0        0        0       27        5    10.027       72     30.1    3.020     1.42       11        7     2039  1212_RCP45_rainfed_15April_sandy.PRM
  Tot(24)       15        4     2040    549.4    467.2   1572.0   461.00      0.0    549.4      0.0    307.9      0.0     98.6       24     49.1     49.1       75     0.000     0.000     0.000     0.000       80        0        0        0        0       50       15     2.597       20     10.1    0.263     0.18        8        7     2040  1212_RCP45_rainfed_15April_sandy.PRM
  Tot(25)       15        4     2041    101.4    621.4   1561.1   463.00      0.0    101.4      0.0      0.0      0.0     65.7       11     36.8     36.8       82     0.000     0.000     0.000     0.000       76        0        0        0        0       61       12     1.705       14     15.2    0.259     0.25        4        7     2041  1212_RCP45_rainfed_15April_sandy.PRM
  Tot(26)       15        4     2042    122.6    541.4   1562.6   466.00      0.0    122.6      0.0      6.1      0.0     71.9       14     32.4     32.4       78     0.000     0.000     0.000     0.000       56        0        0        0        0       59       18     1.565       13      6.1    0.096     0.13        4        7     2042  1212_RCP45_rainfed_15April_sandy.PRM
  Tot(27)       15        4     2043    360.8    536.6   1572.0   469.00      0.0    360.8      0.0    175.4      0.0    109.9       22     63.9     63.9      100     0.000     0.000     0.000     0.000       80        0        0        0        0       52        0     4.049       30     30.4    1.229     0.72        8        7     2043  1212_RCP45_rainfed_15April_sandy.PRM
  Tot(28)       15        4     2044    681.0    439.0   1561.1   471.00      0.0    681.0      0.0    485.8      0.0    130.8       31     41.1     41.1       94     0.000     0.000     0.000     0.000       80        0        0        0        0       55        3     2.950       22     30.2    0.892     0.52        8        7     2044  1212_RCP45_rainfed_15April_sandy.PRM
  Tot(29)       15        4     2045    745.4    399.4   1559.3   474.00      0.0    745.4      0.0    475.5      0.0    130.3       48     88.0     88.0       77     0.000     0.000     0.000     0.000       84        0        0        0        0       42       11     6.331       46     30.3    1.919     0.88       13        7     2045  1212_RCP45_rainfed_15April_sandy.PRM
  Tot(30)       15        4     2046    826.6    406.9   1561.1   476.00      0.0    826.6      0.0    640.8      0.0    107.3       32     68.5     68.5       82     0.000     0.000     0.000     0.000       86        0        0        0        1       40        8     7.099       50     30.2    2.141     1.22       14        7     2046  1212_RCP45_rainfed_15April_sandy.PRM
  Tot(31)       15        4     2047    613.1    394.5   1559.8   479.00      0.0    613.1      0.0    421.7      0.0    113.7       36     80.3     80.3       90     0.000     0.000     0.000     0.000       85        0        0        0        1       36        4     8.756       60     30.0    2.627     1.37       13        7     2047  1212_RCP45_rainfed_15April_sandy.PRM
  Tot(32)       15        4     2048    344.7    462.2   1566.8   481.00      0.0    344.7      0.0    160.9      0.0    115.2       27     47.2     47.2       86     0.000     0.000     0.000     0.000       82        0        0        0        0       56        6     3.428       25     30.8    1.057     0.66       10        7     2048  1212_RCP45_rainfed_15April_sandy.PRM
  Tot(33)       15        4     2049    324.5    558.7   1568.4   484.00      0.0    324.5      0.0    209.4      0.0     72.9       13     32.2     32.2       81     0.000     0.000     0.000     0.000       61        0        0        0        0       59       16     1.612       13     10.2    0.165     0.22        5        7     2049  1212_RCP45_rainfed_15April_sandy.PRM
  Tot(34)       15        4     2050    730.5    387.2   1557.6   487.00      0.0    730.5      0.0    482.6      0.0    117.7       47    114.5    114.5       83     0.000     0.000     0.000     0.000       84        0        0        0        0       34        7     8.992       64     30.2    2.719     1.18       13        7     2050  1212_RCP45_rainfed_15April_sandy.PRM
  Tot(35)       15        4     2051    463.8    524.6   1558.1   489.00      0.0    463.8      0.0    274.7      0.0     86.7       20     73.0     73.0       76     0.000     0.000     0.000     0.000       78        0        0        0        0       47       12     4.032       31     26.0    1.048     0.66        6        7     2051  1212_RCP45_rainfed_15April_sandy.PRM
  Tot(36)       15        4     2052    481.3    513.9   1559.9   492.00      0.0    481.3      0.0    330.7      0.0     73.8       15     32.1     32.1       86     0.000     0.000     0.000     0.000       78        0        0        0        0       61        7     1.488       12     25.6    0.381     0.36        6        7     2052  1212_RCP45_rainfed_15April_sandy.PRM
  Tot(37)       15        4     2053    623.8    457.5   1560.1   494.00      0.0    623.8      0.0    405.6      0.0     91.7       25    105.1    105.1      100     0.000     0.000     0.000     0.000       82        0        0        0        0       29        0     8.749       63     30.0    2.625     1.34       10        7     2053  1212_RCP45_rainfed_15April_sandy.PRM
  Tot(38)       15        4     2054    736.6    482.6   1559.7   496.00      0.0    736.6      0.0    519.8      0.0    122.3       27     37.7     37.7       83     0.000     0.000     0.000     0.000       79        0        0        0        0       60        8     1.933       15     30.8    0.595     0.37        7        7     2054  1212_RCP45_rainfed_15April_sandy.PRM
  Tot(39)       15        4     2055    372.6    505.4   1564.2   498.00      0.0    372.6      0.0     77.7      0.0    105.0       30    116.2    116.2       85     0.000     0.000     0.000     0.000       80        0        0        0        0       37        7     7.465       55     30.4    2.266     1.03        8        7     2055  1212_RCP45_rainfed_15April_sandy.PRM
  Tot(40)       15        4     2056    789.3    465.9   1565.8   501.00      0.0    789.3      0.0    569.9      0.0     85.2       25    117.9    117.9       91     0.000     0.000     0.000     0.000       81        0        0        0        0       35        3     8.023       60     30.6    2.455     1.21        9        7     2056  1212_RCP45_rainfed_15April_sandy.PRM
  Tot(41)       15        4     2057    747.8    470.0   1559.5   503.00      0.0    747.8      0.0    585.6      0.0     85.2       20     55.8     55.8       83     0.000     0.000     0.000     0.000       81        0        0        0        0       53        9     3.218       24     30.6    0.984     0.70        9        7     2057  1212_RCP45_rainfed_15April_sandy.PRM
  Tot(42)       15        4     2058    707.3    412.6   1557.7   505.00      0.0    707.3      0.0    494.6      0.0    111.5       33     90.7     90.7       99     0.000     0.000     0.000     0.000       85        0        0        0        1       30        1     9.520       65     30.0    2.857     1.42       13        7     2058  1212_RCP45_rainfed_15April_sandy.PRM
  Tot(43)       15        4     2059   1358.4    373.0   1565.6   507.00      0.0   1358.4      0.0   1067.7      0.0    101.9       43    144.1    144.1      100     0.000     0.000     0.000     0.000       88        0        0        0        1       12        0    12.891       90     30.2    3.890     1.58       16        7     2059  1212_RCP45_rainfed_15April_sandy.PRM
  Tot(44)       15        4     2060   1026.3    438.9   1562.1   509.00      0.0   1026.3      0.0    855.5      0.0     87.6       23     62.2     62.2       78     0.000     0.000     0.000     0.000       80        0        0        0        0       48        7     4.698       35     21.1    0.992     0.67        8        7     2060  1212_RCP45_rainfed_15April_sandy.PRM
  Tot(45)       15        4     2061    433.6    488.2   1559.8   511.00      0.0    433.6      0.0    292.4      0.0     93.4       21     45.7     45.7       80     0.000     0.000     0.000     0.000       79        0        0        0        0       54       12     2.247       17     24.5    0.549     0.40        7        7     2061  1212_RCP45_rainfed_15April_sandy.PRM
  Tot(46)       15        4     2062    616.4    470.7   1570.2   513.00      0.0    616.4      0.0    441.3      0.0    103.0       23     55.2     55.2       96     0.000     0.000     0.000     0.000       81        0        0        0        0       49        2     4.023       30     30.2    1.214     0.77        9        7     2062  1212_RCP45_rainfed_15April_sandy.PRM
  Tot(47)       15        4     2063    618.0    467.0   1569.9   514.00      0.0    618.0      0.0    454.8      0.0     99.0       21     40.4     40.4       94     0.000     0.000     0.000     0.000       81        0        0        0        0       54        2     3.064       22     30.2    0.927     0.67        9        7     2063  1212_RCP45_rainfed_15April_sandy.PRM
  Tot(48)       15        4     2064   1012.5    448.3   1565.8   516.00      0.0   1012.5      0.0    784.5      0.0    107.9       33    115.1    115.1       88     0.000     0.000     0.000     0.000       83        0        0        0        0       29        5     8.629       63     30.2    2.610     1.17       11        7     2064  1212_RCP45_rainfed_15April_sandy.PRM
  Tot(49)       15        4     2065    339.7    562.2   1571.5   518.00      0.0    339.7      0.0    182.7      0.0     75.7       16     55.0     55.0       71     0.000     0.000     0.000     0.000       54        0        0        0        0       48       23     2.697       22      3.0    0.080     0.08        4        7     2065  1212_RCP45_rainfed_15April_sandy.PRM
  Tot(50)       15        4     2066    891.3    395.9   1568.7   519.00      0.0    891.3      0.0    651.6      0.0    133.7       38     50.4     50.4       84     0.000     0.000     0.000     0.000       84        0        0        0        1       44        9     4.152       30     30.0    1.246     0.68       12        7     2066  1212_RCP45_rainfed_15April_sandy.PRM
  Tot(51)       15        4     2067   1157.1    457.4   1557.3   520.00      0.0   1157.1      0.0    964.4      0.0     96.3       31     85.2     85.2       68     0.000     0.000     0.000     0.000       82        0        0        0        0       36       14     5.687       42     17.8    1.012     0.56        9        7     2067  1212_RCP45_rainfed_15April_sandy.PRM
  Tot(52)       15        4     2068    450.0    478.5   1562.1   522.00      0.0    450.0      0.0    234.8      0.0     81.1       20     84.4     84.4       96     0.000     0.000     0.000     0.000       80        0        0        0        0       43        2     5.833       44     30.6    1.787     1.08        8        7     2068  1212_RCP45_rainfed_15April_sandy.PRM
  Tot(53)       15        4     2069    936.0    390.0   1558.2   523.00      0.0    936.0      0.0    747.7      0.0     80.1       28    101.4    101.4       89     0.000     0.000     0.000     0.000       84        0        0        0        0       32        3     9.395       65     30.4    2.855     1.58       13        7     2069  1212_RCP45_rainfed_15April_sandy.PRM
  Tot(54)       15        4     2070   1195.9    386.0   1571.6   524.00      0.0   1195.9      0.0    931.1      0.0    151.5       45     47.9     47.9       83     0.000     0.000     0.000     0.000       84        0        0        0        0       49        9     3.477       26     30.9    1.074     0.54       12        7     2070  1212_RCP45_rainfed_15April_sandy.PRM
  Tot(55)       15        4     2071    528.2    451.6   1559.3   525.00      0.0    528.2      0.0    325.3      0.0     87.3       26    112.5    112.5       87     0.000     0.000     0.000     0.000       81        0        0        0        0       26        5     8.957       65     30.1    2.699     1.36        9        7     2071  1212_RCP45_rainfed_15April_sandy.PRM
  Tot(56)       15        4     2072    578.2    421.3   1569.9   527.00      0.0    578.2      0.0    355.0      0.0    107.9       35    112.6    112.6       91     0.000     0.000     0.000     0.000       82        0        0        0        0       27        3     9.870       71     30.0    2.964     1.35       10        7     2072  1212_RCP45_rainfed_15April_sandy.PRM
  Tot(57)       15        4     2073    750.7    481.1   1559.4   527.00      0.0    750.7      0.0    595.1      0.0     93.8       21     60.2     60.2       96     0.000     0.000     0.000     0.000       79        0        0        0        0       47        3     4.289       33     30.0    1.287     0.85        7        7     2073  1212_RCP45_rainfed_15April_sandy.PRM
  Tot(58)       15        4     2074   1281.1    307.8   1569.4   528.00      0.0   1281.1      0.0   1059.4      0.0    107.8       51    101.4    101.4      100     0.000     0.000     0.000     0.000       89        0        0        0        0        5        0    14.376       94     30.0    4.313     2.07       17        7     2074  1212_RCP45_rainfed_15April_sandy.PRM
  Tot(59)       15        4     2075    928.9    397.2   1566.8   529.00      0.0    928.9      0.0    683.4      0.0    122.9       52    114.3    114.3       81     0.000     0.000     0.000     0.000       82        0        0        0        0       25        8     8.951       65     30.4    2.723     1.16       10        7     2075  1212_RCP45_rainfed_15April_sandy.PRM
  Tot(60)       15        4     2076    710.1    389.0   1561.6   530.00      0.0    710.1      0.0    518.8      0.0     78.9       26     99.9     99.9      100     0.000     0.000     0.000     0.000       83        0        0        0        0       18        0    11.307       78     30.1    3.403     1.91       11        7     2076  1212_RCP45_rainfed_15April_sandy.PRM
  Tot(61)       15        4     2077   1286.2    369.7   1572.1   530.00      0.0   1286.2      0.0   1030.5      0.0     98.5       41    135.9    135.9      100     0.000     0.000     0.000     0.000       84        0        0        0        0        9        0    12.906       91     30.0    3.872     1.65       12        7     2077  1212_RCP45_rainfed_15April_sandy.PRM
  Tot(62)       15        4     2078    362.1    454.0   1569.0   531.00      0.0    362.1      0.0    176.4      0.0     98.3       23     51.6     51.6       85     0.000     0.000     0.000     0.000       79        0        0        0        0       55        7     3.702       28     30.9    1.145     0.77        7        7     2078  1212_RCP45_rainfed_15April_sandy.PRM
  Tot(63)       15        4     2079    544.9    466.2   1557.7   531.00      0.0    544.9      0.0    387.1      0.0    111.8       26     40.1     40.1       80     0.000     0.000     0.000     0.000       78        0        0        0        0       53       10     1.980       15     30.5    0.603     0.40        6        7     2079  1212_RCP45_rainfed_15April_sandy.PRM
  Tot(64)       15        4     2080    568.3    451.8   1566.3   531.00      0.0    568.3      0.0    410.4      0.0    101.6       26     41.5     41.5       70     0.000     0.000     0.000     0.000       51        0        0        0        0       50       23     2.321       18      2.3    0.053     0.06        6        7     2080  1212_RCP45_rainfed_15April_sandy.PRM
  Tot(65)       15        4     2081    681.2    428.3   1572.2   531.00      0.0    681.2      0.0    473.2      0.0     83.7       26    110.8    110.8       95     0.000     0.000     0.000     0.000       81        0        0        0        0       26        2     9.957       73     30.0    2.988     1.54        9        7     2081  1212_RCP45_rainfed_15April_sandy.PRM
  Tot(66)       15        4     2082    825.1    402.8   1560.9   531.00      0.0    825.1      0.0    609.7      0.0     95.5       32     62.9     62.9       70     0.000     0.000     0.000     0.000       83        0        0        0        0       42       11     3.937       28     30.1    1.186     0.75       12        7     2082  1212_RCP45_rainfed_15April_sandy.PRM
  Tot(67)       15        4     2083    401.1    556.3   1562.5   532.00      0.0    401.1      0.0    268.8      0.0     98.4       18     32.6     32.6       87     0.000     0.000     0.000     0.000       75        0        0        0        0       66        8     1.487       12      9.9    0.148     0.11        3        7     2083  1212_RCP45_rainfed_15April_sandy.PRM
  Tot(68)       15        4     2084    989.6    419.6   1575.4   532.00      0.0    989.6      0.0    847.1      0.0     92.3       24     54.3     54.3       94     0.000     0.000     0.000     0.000       80        0        0        0        0       42        3     5.734       42     30.0    1.720     1.18        8        7     2084  1212_RCP45_rainfed_15April_sandy.PRM
  Tot(69)       15        4     2085    629.0    454.5   1567.9   532.00      0.0    629.0      0.0    414.0      0.0    117.2       30     77.7     77.7       91     0.000     0.000     0.000     0.000       78        0        0        0        0       42        6     5.684       44     30.0    1.706     0.88        6        7     2085  1212_RCP45_rainfed_15April_sandy.PRM
  Tot(70)       15        4     2086   1026.8    417.4   1561.6   532.00      0.0   1026.8      0.0    876.2      0.0     86.2       21     39.9     39.9       91     0.000     0.000     0.000     0.000       80        0        0        0        0       53        4     3.514       26     30.0    1.054     0.84        8        7     2086  1212_RCP45_rainfed_15April_sandy.PRM
  Tot(71)       15        4     2087    385.3    475.9   1562.6   533.00      0.0    385.3      0.0    144.7      0.0    112.9       27     77.4     77.4       98     0.000     0.000     0.000     0.000       77        0        0        0        0       47        1     5.103       39     30.5    1.555     0.82        5        7     2087  1212_RCP45_rainfed_15April_sandy.PRM
  Tot(72)       15        4     2088    807.4    450.5   1570.2   533.00      0.0    807.4      0.0    687.2      0.0     81.9       18     38.2     38.2       97     0.000     0.000     0.000     0.000       81        0        0        0        0       49        1     3.750       27     30.0    1.125     0.94        9        7     2088  1212_RCP45_rainfed_15April_sandy.PRM
  Tot(73)       15        4     2089    549.8    486.1   1567.1   533.00      0.0    549.8      0.0    388.9      0.0    111.8       24     37.2     37.2       81     0.000     0.000     0.000     0.000       75        0        0        0        0       58       11     1.898       15     14.6    0.276     0.19        3        7     2089  1212_RCP45_rainfed_15April_sandy.PRM
  Tot(74)       15        4     2090   1260.0    332.8   1569.2   534.00      0.0   1260.0      0.0   1102.6      0.0     72.0       26     69.0     69.0      100     0.000     0.000     0.000     0.000       85        0        0        0        0       20        0    11.132       75     30.0    3.339     2.38       13        7     2090  1212_RCP45_rainfed_15April_sandy.PRM
  Tot(75)       15        4     2091    634.5    490.0   1557.3   534.00      0.0    634.5      0.0    375.8      0.0     94.6       21     60.3     60.3       98     0.000     0.000     0.000     0.000       77        0        0        0        0       50        2     3.884       30     30.0    1.165     0.75        4        7     2091  1212_RCP45_rainfed_15April_sandy.PRM
  Tot(76)       15        4     2092   1069.0    287.9   1574.4   535.00      0.0   1069.0      0.0    857.9      0.0    107.7       56     98.2     98.2      100     0.000     0.000     0.000     0.000       87        0        0        0        0        2        0    14.517       98     30.0    4.355     2.14       15        7     2092  1212_RCP45_rainfed_15April_sandy.PRM
  Tot(77)       15        4     2093    531.5    451.9   1569.5   535.00      0.0    531.5      0.0    361.3      0.0    109.7       26     50.0     50.0       87     0.000     0.000     0.000     0.000       80        0        0        0        0       55        5     3.216       24     30.6    0.984     0.63        8        7     2093  1212_RCP45_rainfed_15April_sandy.PRM
  Tot(78)       15        4     2094    621.7    399.0   1563.7   535.00      0.0    621.7      0.0    386.7      0.0    117.5       39     96.4     96.4       92     0.000     0.000     0.000     0.000       80        0        0        0        0       30        4     8.886       65     30.1    2.675     1.25        8        7     2094  1212_RCP45_rainfed_15April_sandy.PRM
  Tot(79)       15        4     2095    638.1    475.0   1564.4   536.00      0.0    638.1      0.0    499.6      0.0     97.1       21     33.8     33.8       86     0.000     0.000     0.000     0.000       79        0        0        0        0       65        8     1.687       13     25.7    0.434     0.33        7        7     2095  1212_RCP45_rainfed_15April_sandy.PRM
  Tot(80)       15        4     2096    455.2    441.4   1566.3   536.00      0.0    455.2      0.0    271.2      0.0     92.6       26     83.8     83.8       84     0.000     0.000     0.000     0.000       77        0        0        0        0       41        8     5.513       43     28.1    1.549     0.88        5        7     2096  1212_RCP45_rainfed_15April_sandy.PRM
  Tot(81)       15        4     2097    832.4    442.3   1562.1   537.00      0.0    832.4      0.0    652.5      0.0    104.2       26     41.7     41.7       78     0.000     0.000     0.000     0.000       77        0        0        0        0       52        9     2.350       18     30.3    0.711     0.49        5        7     2097  1212_RCP45_rainfed_15April_sandy.PRM
  Tot(82)       15        4     2098    498.6    481.2   1568.5   537.00      0.0    498.6      0.0    299.0      0.0     91.1       24    101.4    101.4       86     0.000     0.000     0.000     0.000       77        0        0        0        0       41        6     6.601       51     30.5    2.010     1.06        5        7     2098  1212_RCP45_rainfed_15April_sandy.PRM
  Tot(83)       15        4     2099    705.7    397.9   1572.5   538.00      0.0    705.7      0.0    530.1      0.0     95.3       31     64.7     64.7       70     0.000     0.000     0.000     0.000       82        0        0        0        0       40       10     5.418       39     30.1    1.629     1.02       10        7     2099  1212_RCP45_rainfed_15April_sandy.PRM
