AquaCrop 6.0 (March 2017) - Output created on (date) : 28/06/2021   at (time) : 14:00:06

    RunNr     Day1   Month1    Year1     Rain      ETo       GD     CO2      Irri   Infilt   Runoff    Drain   Upflow        E     E/Ex       Tr      TrW   Tr/Trx    SaltIn   SaltOut    SaltUp  SaltProf     Cycle   SaltStr  FertStr  WeedStr  TempStr   ExpStr   StoStr  BioMass  Brelative   HI     Yield     WPet     DayN   MonthN    YearN
                                           mm       mm    °C.day    ppm        mm       mm       mm       mm       mm       mm        %       mm       mm        %    ton/ha    ton/ha    ton/ha    ton/ha      days       %        %        %        %        %        %    ton/ha        %       %    ton/ha    kg/m3
   Tot(1)       15        4     2017    425.0    576.7   1561.7   404.00    396.9    425.0      0.0    347.9      0.0    169.1       55    266.9    266.9      100     0.000     0.000     0.000     0.000       78        0        0        0        0        2        0    12.175       98     19.4    2.366     0.54        6        7     2017  1212_RCP45_net_15April_sandy.PRM
   Tot(2)       15        4     2018    526.0    501.0   1573.3   407.00    304.2    526.0      0.0    414.6      0.0    171.9       65    238.7    238.7      100     0.000     0.000     0.000     0.000       83        0        0        0        0        1        0    13.187       99     30.0    3.957     0.97       11        7     2018  1212_RCP45_net_15April_sandy.PRM
   Tot(3)       15        4     2019     34.4    634.5   1567.8   409.00    429.1     34.4      0.0      4.2      0.0    167.5       51    288.6    288.6      100     0.000     0.000     0.000     0.000       75        0        0        0        0        3        0    11.745       97      8.8    1.034     0.23        3        7     2019  1212_RCP45_net_15April_sandy.PRM
   Tot(4)       15        4     2020    307.2    548.6   1569.8   411.00    303.7    307.2      0.0    183.9      0.0    182.3       60    236.6    236.6      100     0.000     0.000     0.000     0.000       81        0        0        0        0        2        0    13.085       98     30.0    3.926     0.94        9        7     2020  1212_RCP45_net_15April_sandy.PRM
   Tot(5)       15        4     2021    961.7    345.9   1570.9   413.00    145.2    961.7      0.0    781.2      0.0    157.8       76    142.1    142.1      100     0.000     0.000     0.000     0.000       91        0        0        0        1        1        0    14.843       99     30.0    4.453     1.49       20        7     2021  1212_RCP45_net_15April_sandy.PRM
   Tot(6)       15        4     2022    911.0    448.3   1566.1   416.00    227.5    911.0      0.0    760.4      0.0    154.9       61    207.0    207.0      100     0.000     0.000     0.000     0.000       86        0        0        0        1        1        0    13.636       99     30.0    4.091     1.13       14        7     2022  1212_RCP45_net_15April_sandy.PRM
   Tot(7)       15        4     2023    729.9    418.1   1565.7   418.00    190.9    729.9      0.0    491.0      0.0    159.4       64    171.2    171.2      100     0.000     0.000     0.000     0.000       86        0        0        0        1        1        0    14.230       99     30.0    4.269     1.29       14        7     2023  1212_RCP45_net_15April_sandy.PRM
   Tot(8)       15        4     2024    229.6    526.2   1563.3   420.00    357.2    229.6      0.0    149.7      0.0    175.0       63    251.9    251.9      100     0.000     0.000     0.000     0.000       81        0        0        0        0        2        0    12.863       98     30.0    3.862     0.91        9        7     2024  1212_RCP45_net_15April_sandy.PRM
   Tot(9)       15        4     2025    128.8    622.8   1574.8   423.00    447.6    128.8      0.0     58.2      0.0    246.7       69    270.6    270.6      100     0.000     0.000     0.000     0.000       80        0        0        0        0        3        0    12.502       97     30.0    3.753     0.73        8        7     2025  1212_RCP45_net_15April_sandy.PRM
  Tot(10)       15        4     2026    363.5    529.4   1567.3   425.00    259.7    363.5      0.0    196.2      0.0    169.9       57    231.3    231.3      100     0.000     0.000     0.000     0.000       80        0        0        0        0        1        0    12.967       98     30.0    3.891     0.98        8        7     2026  1212_RCP45_net_15April_sandy.PRM
  Tot(11)       15        4     2027    175.5    593.7   1561.6   428.00    391.5    175.5      0.0    101.0      0.0    173.9       57    282.5    282.5      100     0.000     0.000     0.000     0.000       75        0        0        0        0        2        0    11.997       97     18.8    2.257     0.50        3        7     2027  1212_RCP45_net_15April_sandy.PRM
  Tot(12)       15        4     2028    657.7    447.0   1564.4   430.00    242.3    657.7      0.0    425.0      0.0    165.7       66    203.9    203.9      100     0.000     0.000     0.000     0.000       84        0        0        0        0        1        0    13.609       99     30.0    4.084     1.11       13        7     2028  1212_RCP45_net_15April_sandy.PRM
  Tot(13)       15        4     2029     40.9    619.1   1569.9   433.00    397.6     40.9      0.0      0.0      0.0    190.3       58    259.9    259.9      100     0.000     0.000     0.000     0.000       76        0        0        0        0        2        0    12.286       98     23.8    2.929     0.66        4        7     2029  1212_RCP45_net_15April_sandy.PRM
  Tot(14)       15        4     2030    994.4    445.2   1568.9   435.00    226.2    994.4      0.0    767.7      0.0    165.6       66    202.3    202.3      100     0.000     0.000     0.000     0.000       85        0        0        0        0        1        0    13.701       99     30.0    4.112     1.12       13        7     2030  1212_RCP45_net_15April_sandy.PRM
  Tot(15)       15        4     2031    255.0    605.6   1570.6   438.00    387.9    255.0      0.0    135.6      0.0    193.6       64    281.3    281.3      100     0.000     0.000     0.000     0.000       78        0        0        0        0        2        0    12.136       98     12.0    1.457     0.31        6        7     2031  1212_RCP45_net_15April_sandy.PRM
  Tot(16)       15        4     2032    204.0    559.6   1563.5   440.00    352.9    204.0      0.0     52.4      0.0    180.6       64    255.2    255.2      100     0.000     0.000     0.000     0.000       77        0        0        0        0        2        0    12.453       99     30.0    3.739     0.86        5        7     2032  1212_RCP45_net_15April_sandy.PRM
  Tot(17)       15        4     2033    411.2    487.7   1558.8   443.00    240.5    411.2      0.0    269.4      0.0    159.8       57    214.1    214.1      100     0.000     0.000     0.000     0.000       81        0        0        0        0        2        0    13.187       98     30.0    3.956     1.06        9        7     2033  1212_RCP45_net_15April_sandy.PRM
  Tot(18)       15        4     2034    722.4    392.5   1569.3   445.00    188.7    722.4      0.0    519.9      0.0    153.4       67    169.5    169.5      100     0.000     0.000     0.000     0.000       88        0        0        0        1        1        0    14.376       99     30.0    4.313     1.34       16        7     2034  1212_RCP45_net_15April_sandy.PRM
  Tot(19)       15        4     2035    140.8    550.2   1567.9   448.00    322.6    140.8      0.0     55.1      0.0    173.7       62    242.3    242.3      100     0.000     0.000     0.000     0.000       77        0        0        0        0        1        0    12.639       99     30.0    3.792     0.91        5        7     2035  1212_RCP45_net_15April_sandy.PRM
  Tot(20)       15        4     2036    700.6    421.7   1557.3   450.00    218.5    700.6      0.0    565.5      0.0    177.2       72    180.2    180.2      100     0.000     0.000     0.000     0.000       84        0        0        0        0        1        0    13.606       99     30.0    4.085     1.14       11        7     2036  1212_RCP45_net_15April_sandy.PRM
  Tot(21)       15        4     2037    394.4    487.0   1566.6   453.00    301.3    394.4      0.0    306.5      0.0    160.7       58    220.2    220.2      100     0.000     0.000     0.000     0.000       82        0        0        0        0        2        0    13.161       98     30.0    3.948     1.04       10        7     2037  1212_RCP45_net_15April_sandy.PRM
  Tot(22)       15        4     2038    973.7    480.6   1567.5   456.00    266.4    973.7      0.0    852.7      0.0    164.5       61    217.7    217.7      100     0.000     0.000     0.000     0.000       84        0        0        0        0        1        0    13.320       98     30.0    3.998     1.05       12        7     2038  1212_RCP45_net_15April_sandy.PRM
  Tot(23)       15        4     2039    428.8    400.3   1561.8   458.00    160.5    428.8      0.0    230.8      0.0    152.2       64    166.3    166.3      100     0.000     0.000     0.000     0.000       83        0        0        0        0        1        0    13.808       99     30.0    4.143     1.30       11        7     2039  1212_RCP45_net_15April_sandy.PRM
  Tot(24)       15        4     2040    549.4    467.2   1572.0   461.00    295.6    549.4      0.0    377.1      0.0    160.3       62    213.6    213.6      100     0.000     0.000     0.000     0.000       80        0        0        0        0        2        0    12.749       98     30.0    3.828     1.03        8        7     2040  1212_RCP45_net_15April_sandy.PRM
  Tot(25)       15        4     2041    101.4    621.4   1561.1   463.00    408.1    101.4      0.0     40.0      0.0    176.4       54    279.0    279.0      100     0.000     0.000     0.000     0.000       76        0        0        0        0        3        0    12.227       97     14.9    1.820     0.40        4        7     2041  1212_RCP45_net_15April_sandy.PRM
  Tot(26)       15        4     2042    122.6    541.4   1562.6   466.00    400.3    122.6      0.0     61.6      0.0    171.6       66    276.0    276.0      100     0.000     0.000     0.000     0.000       76        0        0        0        0        2        0    12.319       99     14.5    1.787     0.40        4        7     2042  1212_RCP45_net_15April_sandy.PRM
  Tot(27)       15        4     2043    360.8    536.6   1572.0   469.00    290.2    360.8      0.0    229.7      0.0    183.1       60    225.7    225.7      100     0.000     0.000     0.000     0.000       80        0        0        0        0        2        0    13.183       98     30.0    3.957     0.97        8        7     2043  1212_RCP45_net_15April_sandy.PRM
  Tot(28)       15        4     2044    681.0    439.0   1561.1   471.00    240.3    681.0      0.0    544.0      0.0    164.3       65    188.9    188.9      100     0.000     0.000     0.000     0.000       80        0        0        0        0        2        0    13.347       99     30.0    4.004     1.14        8        7     2044  1212_RCP45_net_15April_sandy.PRM
  Tot(29)       15        4     2045    745.4    399.4   1559.3   474.00    201.2    745.4      0.0    546.8      0.0    161.0       75    187.1    187.1      100     0.000     0.000     0.000     0.000       84        0        0        0        0        1        0    13.781       99     30.0    4.137     1.19       13        7     2045  1212_RCP45_net_15April_sandy.PRM
  Tot(30)       15        4     2046    826.6    406.9   1561.1   476.00    201.3    826.6      0.0    700.0      0.0    153.1       61    164.6    164.6      100     0.000     0.000     0.000     0.000       86        0        0        0        1        1        0    14.103       99     30.0    4.231     1.33       14        7     2046  1212_RCP45_net_15April_sandy.PRM
  Tot(31)       15        4     2047    613.1    394.5   1559.8   479.00    183.2    613.1      0.0    483.1      0.0    161.1       66    152.9    152.9      100     0.000     0.000     0.000     0.000       85        0        0        0        1        1        0    14.286       99     30.0    4.286     1.37       13        7     2047  1212_RCP45_net_15April_sandy.PRM
  Tot(32)       15        4     2048    344.7    462.2   1566.8   481.00    222.4    344.7      0.0    221.6      0.0    141.9       50    181.9    181.9      100     0.000     0.000     0.000     0.000       82        0        0        0        0        2        0    13.573       98     30.0    4.073     1.26       10        7     2048  1212_RCP45_net_15April_sandy.PRM
  Tot(33)       15        4     2049    324.5    558.7   1568.4   484.00    388.7    324.5      0.0    262.6      0.0    171.0       62    269.5    269.5      100     0.000     0.000     0.000     0.000       77        0        0        0        0        2        0    12.384       99     30.0    3.720     0.85        5        7     2049  1212_RCP45_net_15April_sandy.PRM
  Tot(34)       15        4     2050    730.5    387.2   1557.6   487.00    168.8    730.5      0.0    539.4      0.0    158.8       77    185.2    185.2      100     0.000     0.000     0.000     0.000       84        0        0        0        0        0        0    13.942       99     30.0    4.184     1.22       13        7     2050  1212_RCP45_net_15April_sandy.PRM
  Tot(35)       15        4     2051    463.8    524.6   1558.1   489.00    307.3    463.8      0.0    346.8      0.0    170.7       55    224.2    224.2      100     0.000     0.000     0.000     0.000       78        0        0        0        0        2        0    12.550       97     30.0    3.767     0.96        6        7     2051  1212_RCP45_net_15April_sandy.PRM
  Tot(36)       15        4     2052    481.3    513.9   1559.9   492.00    364.9    481.3      0.0    381.8      0.0    173.6       63    246.0    246.0      100     0.000     0.000     0.000     0.000       78        0        0        0        0        2        0    12.408       98     27.6    3.420     0.82        6        7     2052  1212_RCP45_net_15April_sandy.PRM
  Tot(37)       15        4     2053    623.8    457.5   1560.1   494.00    212.5    623.8      0.0    468.4      0.0    164.5       59    181.9    181.9      100     0.000     0.000     0.000     0.000       82        0        0        0        0        1        0    13.590       98     30.0    4.077     1.18       10        7     2053  1212_RCP45_net_15April_sandy.PRM
  Tot(38)       15        4     2054    736.6    482.6   1559.7   496.00    290.0    736.6      0.0    575.9      0.0    169.1       65    224.6    224.6      100     0.000     0.000     0.000     0.000       79        0        0        0        0        2        0    12.898       99     30.0    3.871     0.98        7        7     2054  1212_RCP45_net_15April_sandy.PRM
  Tot(39)       15        4     2055    372.6    505.4   1564.2   498.00    240.2    372.6      0.0    169.6      0.0    162.6       57    206.6    206.6      100     0.000     0.000     0.000     0.000       80        0        0        0        0        1        0    13.417       98     30.0    4.026     1.09        8        7     2055  1212_RCP45_net_15April_sandy.PRM
  Tot(40)       15        4     2056    789.3    465.9   1565.8   501.00    236.5    789.3      0.0    654.8      0.0    155.4       58    199.1    199.1      100     0.000     0.000     0.000     0.000       81        0        0        0        0        2        0    13.267       99     30.0    3.984     1.13        9        7     2056  1212_RCP45_net_15April_sandy.PRM
  Tot(41)       15        4     2057    747.8    470.0   1559.5   503.00    258.0    747.8      0.0    657.5      0.0    138.4       47    188.2    188.2      100     0.000     0.000     0.000     0.000       81        0        0        0        0        2        0    13.076       98     30.0    3.924     1.20        9        7     2057  1212_RCP45_net_15April_sandy.PRM
  Tot(42)       15        4     2058    707.3    412.6   1557.7   505.00    166.1    707.3      0.0    539.4      0.0    161.2       63    162.1    162.1      100     0.000     0.000     0.000     0.000       85        0        0        0        1        1        0    14.420       99     30.0    4.326     1.34       13        7     2058  1212_RCP45_net_15April_sandy.PRM
  Tot(43)       15        4     2059   1358.4    373.0   1565.6   507.00    161.6   1358.4      0.0   1158.5      0.0    154.0       70    162.8    162.8      100     0.000     0.000     0.000     0.000       88        0        0        0        1        1        0    14.239       99     30.0    4.273     1.35       16        7     2059  1212_RCP45_net_15April_sandy.PRM
  Tot(44)       15        4     2060   1026.3    438.9   1562.1   509.00    266.5   1026.3      0.0    914.0      0.0    174.9       65    182.1    182.1      100     0.000     0.000     0.000     0.000       80        0        0        0        0        1        0    13.112       98     23.8    3.119     0.88        8        7     2060  1212_RCP45_net_15April_sandy.PRM
  Tot(45)       15        4     2061    433.6    488.2   1559.8   511.00    324.7    433.6      0.0    360.2      0.0    168.3       64    227.0    227.0      100     0.000     0.000     0.000     0.000       79        0        0        0        0        2        0    12.715       99     30.0    3.816     0.97        7        7     2061  1212_RCP45_net_15April_sandy.PRM
  Tot(46)       15        4     2062    616.4    470.7   1570.2   513.00    252.8    616.4      0.0    497.7      0.0    157.6       55    196.7    196.7      100     0.000     0.000     0.000     0.000       81        0        0        0        0        2        0    13.091       98     30.0    3.929     1.11        9        7     2062  1212_RCP45_net_15April_sandy.PRM
  Tot(47)       15        4     2063    618.0    467.0   1569.9   514.00    262.5    618.0      0.0    512.0      0.0    156.0       55    188.5    188.5      100     0.000     0.000     0.000     0.000       81        0        0        0        0        2        0    13.420       98     30.0    4.027     1.17        9        7     2063  1212_RCP45_net_15April_sandy.PRM
  Tot(48)       15        4     2064   1012.5    448.3   1565.8   516.00    220.6   1012.5      0.0    872.9      0.0    156.2       61    198.9    198.9      100     0.000     0.000     0.000     0.000       83        0        0        0        0        1        0    13.539       99     30.0    4.063     1.15       11        7     2064  1212_RCP45_net_15April_sandy.PRM
  Tot(49)       15        4     2065    339.7    562.2   1571.5   518.00    377.0    339.7      0.0    254.8      0.0    161.6       57    273.7    273.7      100     0.000     0.000     0.000     0.000       76        0        0        0        0        2        0    12.240       98      4.0    0.492     0.11        4        7     2065  1212_RCP45_net_15April_sandy.PRM
  Tot(50)       15        4     2066    891.3    395.9   1568.7   519.00    214.7    891.3      0.0    711.2      0.0    161.9       73    177.3    177.3      100     0.000     0.000     0.000     0.000       84        0        0        0        1        2        0    13.788       99     30.0    4.136     1.22       12        7     2066  1212_RCP45_net_15April_sandy.PRM
  Tot(51)       15        4     2067   1157.1    457.4   1557.3   520.00    238.7   1157.1      0.0   1024.9      0.0    150.0       59    209.6    209.6      100     0.000     0.000     0.000     0.000       82        0        0        0        0        1        0    13.356       98     30.0    4.011     1.12        9        7     2067  1212_RCP45_net_15April_sandy.PRM
  Tot(52)       15        4     2068    450.0    478.5   1562.1   522.00    298.2    450.0      0.0    315.1      0.0    180.6       64    202.7    202.7      100     0.000     0.000     0.000     0.000       80        0        0        0        0        2        0    12.944       97     30.0    3.885     1.01        8        7     2068  1212_RCP45_net_15April_sandy.PRM
  Tot(53)       15        4     2069    936.0    390.0   1558.2   523.00    191.9    936.0      0.0    816.1      0.0    144.8       60    160.1    160.1      100     0.000     0.000     0.000     0.000       84        0        0        0        0        1        0    14.139       98     30.0    4.243     1.39       13        7     2069  1212_RCP45_net_15April_sandy.PRM
  Tot(54)       15        4     2070   1195.9    386.0   1571.6   524.00    185.6   1195.9      0.0    984.3      0.0    160.6       75    171.0    171.0      100     0.000     0.000     0.000     0.000       84        0        0        0        0        1        0    13.474       99     30.0    4.043     1.22       12        7     2070  1212_RCP45_net_15April_sandy.PRM
  Tot(55)       15        4     2071    528.2    451.6   1559.3   525.00    218.0    528.2      0.0    418.7      0.0    142.6       52    181.7    181.7      100     0.000     0.000     0.000     0.000       81        0        0        0        0        2        0    13.529       98     30.0    4.060     1.25        9        7     2071  1212_RCP45_net_15April_sandy.PRM
  Tot(56)       15        4     2072    578.2    421.3   1569.9   527.00    164.0    578.2      0.0    413.7      0.0    152.9       60    172.9    172.9      100     0.000     0.000     0.000     0.000       82        0        0        0        0        1        0    13.693       99     30.0    4.108     1.26       10        7     2072  1212_RCP45_net_15April_sandy.PRM
  Tot(57)       15        4     2073    750.7    481.1   1559.4   527.00    265.7    750.7      0.0    656.6      0.0    153.2       54    204.3    204.3      100     0.000     0.000     0.000     0.000       79        0        0        0        0        2        0    12.916       98     30.0    3.875     1.09        7        7     2073  1212_RCP45_net_15April_sandy.PRM
  Tot(58)       15        4     2074   1281.1    307.8   1569.4   528.00     86.4   1281.1      0.0   1104.9      0.0    138.9       69    111.1    111.1      100     0.000     0.000     0.000     0.000       89        0        0        0        0        0        0    15.170       99     30.0    4.551     1.82       17        7     2074  1212_RCP45_net_15April_sandy.PRM
  Tot(59)       15        4     2075    928.9    397.2   1566.8   529.00    151.5    928.9      0.0    750.4      0.0    143.6       66    177.8    177.8      100     0.000     0.000     0.000     0.000       82        0        0        0        0        0        0    13.606       99     30.0    4.083     1.28       10        7     2075  1212_RCP45_net_15April_sandy.PRM
  Tot(60)       15        4     2076    710.1    389.0   1561.6   530.00    133.8    710.1      0.0    562.7      0.0    132.4       50    136.2    136.2      100     0.000     0.000     0.000     0.000       83        0        0        0        0        1        0    14.141       98     30.0    4.242     1.58       11        7     2076  1212_RCP45_net_15April_sandy.PRM
  Tot(61)       15        4     2077   1286.2    369.7   1572.1   530.00    110.9   1286.2      0.0   1079.7      0.0    144.0       64    152.1    152.1      100     0.000     0.000     0.000     0.000       84        0        0        0        0        1        0    14.012       99     30.0    4.204     1.42       12        7     2077  1212_RCP45_net_15April_sandy.PRM
  Tot(62)       15        4     2078    362.1    454.0   1569.0   531.00    252.9    362.1      0.0    235.5      0.0    152.9       58    190.5    190.5      100     0.000     0.000     0.000     0.000       79        0        0        0        0        2        0    13.077       99     30.0    3.925     1.15        7        7     2078  1212_RCP45_net_15April_sandy.PRM
  Tot(63)       15        4     2079    544.9    466.2   1557.7   531.00    298.4    544.9      0.0    443.8      0.0    165.7       68    227.7    227.7      100     0.000     0.000     0.000     0.000       78        0        0        0        0        2        0    12.673       99     30.0    3.803     0.97        6        7     2079  1212_RCP45_net_15April_sandy.PRM
  Tot(64)       15        4     2080    568.3    451.8   1566.3   531.00    281.5    568.3      0.0    471.3      0.0    151.6       61    211.9    211.9      100     0.000     0.000     0.000     0.000       78        0        0        0        0        2        0    12.482       99     20.1    2.507     0.69        6        7     2080  1212_RCP45_net_15April_sandy.PRM
  Tot(65)       15        4     2081    681.2    428.3   1572.2   531.00    197.1    681.2      0.0    535.2      0.0    156.4       59    173.1    173.1      100     0.000     0.000     0.000     0.000       81        0        0        0        0        2        0    13.462       98     30.0    4.039     1.23        9        7     2081  1212_RCP45_net_15April_sandy.PRM
  Tot(66)       15        4     2082    825.1    402.8   1560.9   531.00    240.0    825.1      0.0    673.2      0.0    149.0       66    185.8    185.8      100     0.000     0.000     0.000     0.000       83        0        0        0        0        2        0    13.873       98     30.0    4.163     1.25       12        7     2082  1212_RCP45_net_15April_sandy.PRM
  Tot(67)       15        4     2083    401.1    556.3   1562.5   532.00    358.2    401.1      0.0    333.2      0.0    169.6       56    253.6    253.6      100     0.000     0.000     0.000     0.000       75        0        0        0        0        3        0    12.244       98      9.7    1.186     0.28        3        7     2083  1212_RCP45_net_15April_sandy.PRM
  Tot(68)       15        4     2084    989.6    419.6   1575.4   532.00    216.8    989.6      0.0    888.7      0.0    152.3       61    168.7    168.7      100     0.000     0.000     0.000     0.000       80        0        0        0        0        2       -0    13.442       98     30.0    4.033     1.26        8        7     2084  1212_RCP45_net_15April_sandy.PRM
  Tot(69)       15        4     2085    629.0    454.5   1567.9   532.00    230.6    629.0      0.0    480.9      0.0    156.8       62    201.5    201.5      100     0.000     0.000     0.000     0.000       78        0        0        0        0        1       -0    12.939       99     30.0    3.882     1.09        6        7     2085  1212_RCP45_net_15April_sandy.PRM
  Tot(70)       15        4     2086   1026.8    417.4   1561.6   532.00    248.5   1026.8      0.0    924.8      0.0    147.5       59    178.2    178.2      100     0.000     0.000     0.000     0.000       80        0        0        0        0        2        0    13.405       98     30.0    4.021     1.24        8        7     2086  1212_RCP45_net_15April_sandy.PRM
  Tot(71)       15        4     2087    385.3    475.9   1562.6   533.00    238.3    385.3      0.0    211.0      0.0    163.6       62    198.6    198.6      100     0.000     0.000     0.000     0.000       77        0        0        0        0        1        0    13.014       99     30.0    3.906     1.08        5        7     2087  1212_RCP45_net_15April_sandy.PRM
  Tot(72)       15        4     2088    807.4    450.5   1570.2   533.00    247.0    807.4      0.0    731.4      0.0    149.3       51    173.0    173.0      100     0.000     0.000     0.000     0.000       81        0        0        0        0        2        0    13.572       98     30.0    4.072     1.27        9        7     2088  1212_RCP45_net_15April_sandy.PRM
  Tot(73)       15        4     2089    549.8    486.1   1567.1   533.00    298.4    549.8      0.0    450.4      0.0    162.4       62    222.2    222.2      100     0.000     0.000     0.000     0.000       75        0        0        0        0        2        0    12.222       98     14.2    1.737     0.45        3        7     2089  1212_RCP45_net_15April_sandy.PRM
  Tot(74)       15        4     2090   1260.0    332.8   1569.2   534.00    144.1   1260.0      0.0   1140.0      0.0    137.1       61    110.7    110.7      100     0.000     0.000     0.000     0.000       85        0        0        0        0        1        0    14.718       99     30.0    4.415     1.79       13        7     2090  1212_RCP45_net_15April_sandy.PRM
  Tot(75)       15        4     2091    634.5    490.0   1557.3   534.00    262.9    634.5      0.0    434.1      0.0    148.3       53    211.0    211.0      100     0.000     0.000     0.000     0.000       77        0        0        0        0        2        0    12.688       98     30.0    3.806     1.06        4        7     2091  1212_RCP45_net_15April_sandy.PRM
  Tot(76)       15        4     2092   1069.0    287.9   1574.4   535.00     61.6   1069.0      0.0    896.2      0.0    128.8       68    100.4    100.4      100     0.000     0.000     0.000     0.000       87        0        0        0        0        0        0    14.751       99     30.0    4.425     1.95       15        7     2092  1212_RCP45_net_15April_sandy.PRM
  Tot(77)       15        4     2093    531.5    451.9   1569.5   535.00    265.5    531.5      0.0    423.1      0.0    166.1       63    196.6    196.6      100     0.000     0.000     0.000     0.000       80        0        0        0        0        2        0    13.083       98     30.0    3.926     1.09        8        7     2093  1212_RCP45_net_15April_sandy.PRM
  Tot(78)       15        4     2094    621.7    399.0   1563.7   535.00    179.0    621.7      0.0    445.2      0.0    166.3       71    167.9    167.9      100     0.000     0.000     0.000     0.000       80        0        0        0        0        1        0    13.378       99     30.0    4.013     1.20        8        7     2094  1212_RCP45_net_15April_sandy.PRM
  Tot(79)       15        4     2095    638.1    475.0   1564.4   536.00    302.0    638.1      0.0    549.7      0.0    157.0       61    225.3    225.3      100     0.000     0.000     0.000     0.000       79        0        0        0        0        2        0    12.994       99     30.0    3.902     1.02        7        7     2095  1212_RCP45_net_15April_sandy.PRM
  Tot(80)       15        4     2096    455.2    441.4   1566.3   536.00    240.3    455.2      0.0    351.6      0.0    149.9       57    186.1    186.1      100     0.000     0.000     0.000     0.000       77        0        0        0        0        2        0    12.736       98     30.0    3.824     1.14        5        7     2096  1212_RCP45_net_15April_sandy.PRM
  Tot(81)       15        4     2097    832.4    442.3   1562.1   537.00    260.9    832.4      0.0    710.3      0.0    159.2       63    189.6    189.6      100     0.000     0.000     0.000     0.000       77        0        0        0        0        2        0    12.715       98     30.0    3.815     1.09        5        7     2097  1212_RCP45_net_15April_sandy.PRM
  Tot(82)       15        4     2098    498.6    481.2   1568.5   537.00    248.0    498.6      0.0    388.3      0.0    151.2       53    199.5    199.5      100     0.000     0.000     0.000     0.000       77        0        0        0        0        2        0    12.634       98     30.0    3.790     1.09        5        7     2098  1212_RCP45_net_15April_sandy.PRM
  Tot(83)       15        4     2099    705.7    397.9   1572.5   538.00    207.3    705.7      0.0    581.6      0.0    146.2       62    169.5    169.5      100     0.000     0.000     0.000     0.000       82        0        0        0        0        1        0    13.686       99     30.0    4.106     1.30       10        7     2099  1212_RCP45_net_15April_sandy.PRM
