AquaCrop 6.0 (March 2017) - Output created on (date) : 28/06/2021   at (time) : 14:14:30

    RunNr     Day1   Month1    Year1     Rain      ETo       GD     CO2      Irri   Infilt   Runoff    Drain   Upflow        E     E/Ex       Tr      TrW   Tr/Trx    SaltIn   SaltOut    SaltUp  SaltProf     Cycle   SaltStr  FertStr  WeedStr  TempStr   ExpStr   StoStr  BioMass  Brelative   HI     Yield     WPet     DayN   MonthN    YearN
                                           mm       mm    °C.day    ppm        mm       mm       mm       mm       mm       mm        %       mm       mm        %    ton/ha    ton/ha    ton/ha    ton/ha      days       %        %        %        %        %        %    ton/ha        %       %    ton/ha    kg/m3
   Tot(1)       15        3     2017    266.1    537.7   1562.1   407.00    312.8    266.1      0.0    169.7      0.0    164.2       59    248.9    248.9      100     0.000     0.000     0.000     0.000       84        0        0        0        0        2        0    13.679       99     30.0    4.105     1.00       12        6     2017  1212_RCP85_net_15March_sandy.PRM
   Tot(2)       15        3     2018     89.2    578.8   1572.5   410.00    420.2     89.2      0.0     25.3      0.0    197.3       71    283.1    283.1      100     0.000     0.000     0.000     0.000       84        0        0        0        0        2        0    13.293       99     30.0    3.992     0.84       13        6     2018  1212_RCP85_net_15March_sandy.PRM
   Tot(3)       15        3     2019     67.8    582.6   1558.4   413.00    391.6     67.8      0.0      4.5      0.0    183.1       67    279.7    279.7      100     0.000     0.000     0.000     0.000       82        0        0        0        0        1        0    13.064       99     30.0    3.923     0.85       10        6     2019  1212_RCP85_net_15March_sandy.PRM
   Tot(4)       15        3     2020     55.8    595.0   1565.3   416.00    407.7     55.8      0.0      0.0      0.0    197.2       67    273.3    273.3      100     0.000     0.000     0.000     0.000       84        0        0        0        1        1        0    12.944       99     30.0    3.886     0.83       12        6     2020  1212_RCP85_net_15March_sandy.PRM
   Tot(5)       15        3     2021     74.6    595.5   1567.3   419.00    420.7     74.6      0.0      0.0      0.0    194.7       69    284.7    284.7      100     0.000     0.000     0.000     0.000       85        0        0        0        0        2        0    13.399       99     30.0    4.023     0.84       12        6     2021  1212_RCP85_net_15March_sandy.PRM
   Tot(6)       15        3     2022     10.1    650.9   1559.6   422.00    475.1     10.1      0.0      0.0      0.0    194.9       64    302.2    302.2      100     0.000     0.000     0.000     0.000       81        0        0        0        0        2        0    13.043       99     30.0    3.918     0.79        9        6     2022  1212_RCP85_net_15March_sandy.PRM
   Tot(7)       15        3     2023    119.1    562.0   1564.5   425.00    380.9    119.1      0.0     44.7      0.0    183.8       69    275.2    275.2      100     0.000     0.000     0.000     0.000       84        0        0        0        0        2        0    13.509       99     30.0    4.057     0.89       12        6     2023  1212_RCP85_net_15March_sandy.PRM
   Tot(8)       15        3     2024    119.3    582.0   1558.3   428.00    366.5    119.3      0.0     58.0      0.0    159.3       51    270.8    270.8      100     0.000     0.000     0.000     0.000       85        0        0        0        1        2        0    13.054       98     30.0    3.918     0.92       13        6     2024  1212_RCP85_net_15March_sandy.PRM
   Tot(9)       15        3     2025     49.2    599.3   1565.5   431.00    403.3     49.2      0.0      0.0      0.0    204.9       67    258.1    258.1      100     0.000     0.000     0.000     0.000       81        0        0        0        0        1        0    13.022       99     30.0    3.910     0.85       10        6     2025  1212_RCP85_net_15March_sandy.PRM
  Tot(10)       15        3     2026     87.3    569.7   1557.1   435.00    344.6     87.3      0.0     26.2      0.0    171.4       61    243.2    243.2      100     0.000     0.000     0.000     0.000       84        0        0        0        1        1        0    13.493       99     30.0    4.050     0.98       12        6     2026  1212_RCP85_net_15March_sandy.PRM
  Tot(11)       15        3     2027     47.6    642.0   1563.7   438.00    460.7     47.6      0.0      4.4      0.0    210.5       67    304.8    304.8      100     0.000     0.000     0.000     0.000       83        0        0        0        0        2        0    13.178       99     30.0    3.959     0.77       12        6     2027  1212_RCP85_net_15March_sandy.PRM
  Tot(12)       15        3     2028     51.4    609.7   1566.4   442.00    400.5     51.4      0.0     19.2      0.0    175.8       57    265.1    265.1      100     0.000     0.000     0.000     0.000       82        0        0        0        0        2        0    13.165       99     30.0    3.953     0.90       10        6     2028  1212_RCP85_net_15March_sandy.PRM
  Tot(13)       15        3     2029     70.3    549.4   1569.4   445.00    357.5     70.3      0.0      6.7      0.0    170.8       62    239.3    239.3      100     0.000     0.000     0.000     0.000       81        0        0        0        0        1        0    13.095       99     30.0    3.931     0.96        9        6     2029  1212_RCP85_net_15March_sandy.PRM
  Tot(14)       15        3     2030    112.1    589.2   1563.8   449.00    354.9    112.1      0.0     35.0      0.0    178.1       61    263.7    263.7      100     0.000     0.000     0.000     0.000       82        0        0        0        0        2        0    13.472       99     30.0    4.045     0.92       10        6     2030  1212_RCP85_net_15March_sandy.PRM
  Tot(15)       15        3     2031     39.1    629.7   1567.9   452.00    399.1     39.1      0.0      0.0      0.0    173.9       55    275.4    275.4      100     0.000     0.000     0.000     0.000       81        0        0        0        0        2        0    13.459       98     30.0    4.039     0.90        9        6     2031  1212_RCP85_net_15March_sandy.PRM
  Tot(16)       15        3     2032     58.8    628.9   1570.0   456.00    421.1     58.8      0.0      8.7      0.0    188.5       62    290.3    290.3      100     0.000     0.000     0.000     0.000       81        0        0        0        0        2        0    12.822       99     24.5    3.137     0.66        8        6     2032  1212_RCP85_net_15March_sandy.PRM
  Tot(17)       15        3     2033     51.7    631.2   1567.1   460.00    446.1     51.7      0.0     17.7      0.0    194.2       62    286.8    286.8      100     0.000     0.000     0.000     0.000       82        0        0        0        0        2        0    13.017       98     30.0    3.908     0.82       10        6     2033  1212_RCP85_net_15March_sandy.PRM
  Tot(18)       15        3     2034     82.5    565.0   1558.0   464.00    348.9     82.5      0.0     11.8      0.0    180.8       63    250.4    250.4      100     0.000     0.000     0.000     0.000       83        0        0        0        0        2        0    13.793       99     30.0    4.141     0.97       11        6     2034  1212_RCP85_net_15March_sandy.PRM
  Tot(19)       15        3     2035    183.4    528.7   1565.6   468.00    326.3    183.4      0.0     95.4      0.0    167.8       63    246.8    246.8      100     0.000     0.000     0.000     0.000       84        0        0        0        0        1        0    13.642       99     30.0    4.096     1.00       12        6     2035  1212_RCP85_net_15March_sandy.PRM
  Tot(20)       15        3     2036    174.6    518.7   1561.0   472.00    306.0    174.6      0.0     69.7      0.0    183.9       67    226.1    226.1      100     0.000     0.000     0.000     0.000       86        0        0        0        1        1        0    13.723       99     30.0    4.118     1.01       14        6     2036  1212_RCP85_net_15March_sandy.PRM
  Tot(21)       15        3     2037    200.9    544.9   1557.8   476.00    364.2    200.9      0.0     91.3      0.0    168.3       63    261.5    261.5      100     0.000     0.000     0.000     0.000       84        0        0        0        0        2        0    13.524       99     30.0    4.061     0.95       12        6     2037  1212_RCP85_net_15March_sandy.PRM
  Tot(22)       15        3     2038    130.7    549.1   1558.1   481.00    324.1    130.7      0.0     21.2      0.0    169.5       58    246.3    246.3      100     0.000     0.000     0.000     0.000       85        0        0        0        0        2        0    13.635       99     30.0    4.090     0.99       13        6     2038  1212_RCP85_net_15March_sandy.PRM
  Tot(23)       15        3     2039    122.6    611.8   1572.1   485.00    357.6    122.6      0.0     52.7      0.0    173.5       54    261.3    261.3      100     0.000     0.000     0.000     0.000       82        0        0        0        0        2        0    13.150       98     30.0    3.948     0.91       10        6     2039  1212_RCP85_net_15March_sandy.PRM
  Tot(24)       15        3     2040    149.6    618.2   1566.6   489.00    437.7    149.6      0.0    101.2      0.0    197.5       64    292.5    292.5      100     0.000     0.000     0.000     0.000       82        0        0        0        0        2        0    12.904       98     10.8    1.400     0.29       10        6     2040  1212_RCP85_net_15March_sandy.PRM
  Tot(25)       15        3     2041     33.8    618.7   1561.5   494.00    380.4     33.8      0.0      0.0      0.0    165.7       52    260.8    260.8      100     0.000     0.000     0.000     0.000       80        0        0        0        0        2        0    13.066       98     30.0    3.922     0.93        8        6     2041  1212_RCP85_net_15March_sandy.PRM
  Tot(26)       15        3     2042    118.5    532.3   1574.2   499.00    314.1    118.5      0.0     27.2      0.0    171.5       71    245.1    245.1      100     0.000     0.000     0.000     0.000       82        0        0        0        0        1        0    13.389       99     30.0    4.019     0.97        9        6     2042  1212_RCP85_net_15March_sandy.PRM
  Tot(27)       15        3     2043    201.8    587.4   1573.4   504.00    331.7    201.8      0.0    115.0      0.0    171.0       55    249.3    249.3      100     0.000     0.000     0.000     0.000       82        0        0        0        0        2        0    13.385       98     30.0    4.017     0.96        9        6     2043  1212_RCP85_net_15March_sandy.PRM
  Tot(28)       15        3     2044     61.7    560.2   1567.8   508.00    399.6     61.7      0.0     22.8      0.0    181.0       66    261.2    261.2      100     0.000     0.000     0.000     0.000       79        0        0        0        0        2        0    12.880       99     30.0    3.867     0.88        6        6     2044  1212_RCP85_net_15March_sandy.PRM
  Tot(29)       15        3     2045    142.9    583.9   1568.2   513.00    405.6    142.9      0.0     71.0      0.0    174.3       60    273.1    273.1      100     0.000     0.000     0.000     0.000       80        0        0        0        0        2        0    12.828       98     30.0    3.852     0.86        8        6     2045  1212_RCP85_net_15March_sandy.PRM
  Tot(30)       15        3     2046      1.0    654.3   1573.5   519.00    446.5      1.0      0.0      0.0      0.0    177.9       55    281.5    281.5      100     0.000     0.000     0.000     0.000       76        0        0        0        0        3        0    12.427       98     26.1    3.250     0.71        5        6     2046  1212_RCP85_net_15March_sandy.PRM
  Tot(31)       15        3     2047     58.7    589.1   1569.2   524.00    391.4     58.7      0.0      9.2      0.0    184.3       66    263.0    263.0      100     0.000     0.000     0.000     0.000       80        0        0        0        0        1        0    12.962       99     30.0    3.892     0.88        8        6     2047  1212_RCP85_net_15March_sandy.PRM
  Tot(32)       15        3     2048    180.0    547.4   1565.4   529.00    340.6    180.0      0.0     89.6      0.0    179.3       66    255.0    255.0      100     0.000     0.000     0.000     0.000       82        0        0        0        0        1        0    13.390       99     30.0    4.020     0.93       10        6     2048  1212_RCP85_net_15March_sandy.PRM
  Tot(33)       15        3     2049    132.1    560.6   1567.8   535.00    372.1    132.1      0.0     49.7      0.0    213.7       76    246.6    246.6      100     0.000     0.000     0.000     0.000       82        0        0        0        0        2        0    13.631       99     30.0    4.091     0.90       10        6     2049  1212_RCP85_net_15March_sandy.PRM
  Tot(34)       15        3     2050    278.4    517.7   1569.8   541.00    282.4    278.4      0.0    152.7      0.0    171.3       63    220.6    220.6      100     0.000     0.000     0.000     0.000       86        0        0        0        1        1        0    13.936       99     30.0    4.183     1.07       14        6     2050  1212_RCP85_net_15March_sandy.PRM
  Tot(35)       15        3     2051     59.9    586.6   1557.0   546.00    354.0     59.9      0.0      8.6      0.0    181.3       59    232.3    232.3      100     0.000     0.000     0.000     0.000       80        0        0        0        0        2        0    13.234       98     30.0    3.973     0.96        6        6     2051  1212_RCP85_net_15March_sandy.PRM
  Tot(36)       15        3     2052     70.9    593.8   1557.9   552.00    342.7     70.9      0.0      8.7      0.0    177.4       57    240.2    240.2      100     0.000     0.000     0.000     0.000       79        0        0        0        0        2        0    13.161       98     30.0    3.952     0.95        6        6     2052  1212_RCP85_net_15March_sandy.PRM
  Tot(37)       15        3     2053     75.4    593.5   1566.6   558.00    381.7     75.4      0.0     16.8      0.0    191.1       63    254.4    254.4      100     0.000     0.000     0.000     0.000       80        0        0        0        0        2        0    13.089       98     30.0    3.929     0.89        7        6     2053  1212_RCP85_net_15March_sandy.PRM
  Tot(38)       15        3     2054     41.4    608.9   1572.4   564.00    416.4     41.4      0.0      1.9      0.0    188.1       64    270.1    270.1      100     0.000     0.000     0.000     0.000       78        0        0        0        0        2        0    12.763       98     30.0    3.832     0.84        5        6     2054  1212_RCP85_net_15March_sandy.PRM
  Tot(39)       15        3     2055     67.4    546.2   1565.2   571.00    323.2     67.4      0.0      9.9      0.0    165.1       58    227.2    227.2      100     0.000     0.000     0.000     0.000       80        0        0        0        0        1        0    13.208       99     30.0    3.965     1.02        8        6     2055  1212_RCP85_net_15March_sandy.PRM
  Tot(40)       15        3     2056    205.4    520.0   1561.5   577.00    304.8    205.4      0.0     92.2      0.0    179.4       69    228.5    228.5      100     0.000     0.000     0.000     0.000       82        0        0        0        0        1        0    13.630       99     30.0    4.090     1.01       10        6     2056  1212_RCP85_net_15March_sandy.PRM
  Tot(41)       15        3     2057     38.3    602.6   1571.4   583.00    403.4     38.3      0.0      1.3      0.0    168.7       56    259.8    259.8      100     0.000     0.000     0.000     0.000       77        0        0        0        0        2        0    12.718       98     30.0    3.819     0.89        5        6     2057  1212_RCP85_net_15March_sandy.PRM
  Tot(42)       15        3     2058    121.7    547.7   1567.0   590.00    358.7    121.7      0.0     68.3      0.0    164.9       60    251.8    251.8      100     0.000     0.000     0.000     0.000       80        0        0        0        0        2        0    13.154       99     19.7    2.586     0.62        8        6     2058  1212_RCP85_net_15March_sandy.PRM
  Tot(43)       15        3     2059     56.2    625.4   1566.9   597.00    404.1     56.2      0.0     10.9      0.0    192.3       61    268.9    268.9      100     0.000     0.000     0.000     0.000       79        0        0        0        0        2        0    13.015       98     30.0    3.907     0.85        7        6     2059  1212_RCP85_net_15March_sandy.PRM
  Tot(44)       15        3     2060     71.4    631.7   1571.6   604.00    384.8     71.4      0.0     21.5      0.0    190.8       58    256.0    256.0      100     0.000     0.000     0.000     0.000       80        0        0        0        0        2        0    13.358       98     30.0    4.010     0.91        7        6     2060  1212_RCP85_net_15March_sandy.PRM
  Tot(45)       15        3     2061     53.4    545.4   1573.7   611.00    347.7     53.4      0.0      1.5      0.0    169.6       66    241.1    241.1      100     0.000     0.000     0.000     0.000       78        0        0        0        0        1        0    12.920       99     30.0    3.878     0.95        5        6     2061  1212_RCP85_net_15March_sandy.PRM
  Tot(46)       15        3     2062    135.0    555.7   1566.9   618.00    267.3    135.0      0.0     38.6      0.0    162.8       52    206.8    206.8      100     0.000     0.000     0.000     0.000       81        0        0        0        0        1        0    13.888       98     30.0    4.168     1.14        9        6     2062  1212_RCP85_net_15March_sandy.PRM
  Tot(47)       15        3     2063    215.0    518.5   1573.8   625.00    274.2    215.0      0.0    100.2      0.0    163.5       59    223.6    223.6      100     0.000     0.000     0.000     0.000       83        0        0        0        0        2        0    13.694       99     30.0    4.111     1.07       10        6     2063  1212_RCP85_net_15March_sandy.PRM
  Tot(48)       15        3     2064     70.7    559.3   1569.5   632.00    339.5     70.7      0.0      0.0      0.0    175.0       69    246.9    246.9      100     0.000     0.000     0.000     0.000       79        0        0        0        0        1        0    13.354       99     30.0    4.010     0.96        6        6     2064  1212_RCP85_net_15March_sandy.PRM
  Tot(49)       15        3     2065    469.7    536.2   1561.0   639.00    320.8    469.7      0.0    362.6      0.0    175.1       63    237.8    237.8      100     0.000     0.000     0.000     0.000       81        0        0        0        0        2        0    13.396       98     30.0    4.022     0.98        9        6     2065  1212_RCP85_net_15March_sandy.PRM
  Tot(50)       15        3     2066     35.3    635.3   1564.5   647.00    402.2     35.3      0.0      0.0      0.0    186.8       58    263.0    263.0      100     0.000     0.000     0.000     0.000       76        0        0        0        0        2        0    12.784       97     30.0    3.838     0.86        4        6     2066  1212_RCP85_net_15March_sandy.PRM
  Tot(51)       15        3     2067     50.2    553.0   1562.9   654.00    383.1     50.2      0.0      0.0      0.0    183.5       70    251.4    251.4      100     0.000     0.000     0.000     0.000       79        0        0        0        0        2        0    13.234       99     30.0    3.973     0.92        6        6     2067  1212_RCP85_net_15March_sandy.PRM
  Tot(52)       15        3     2068     65.1    582.5   1567.2   662.00    339.1     65.1      0.0     12.7      0.0    162.7       54    240.8    240.8      100     0.000     0.000     0.000     0.000       77        0        0        0        0        2        0    12.953       98     30.0    3.889     0.97        4        6     2068  1212_RCP85_net_15March_sandy.PRM
  Tot(53)       15        3     2069    168.9    527.7   1574.7   669.00    281.8    168.9      0.0     36.2      0.0    190.4       70    218.5    218.5      100     0.000     0.000     0.000     0.000       82        0        0        0        0        1        0    13.629       99     30.0    4.091     1.01       10        6     2069  1212_RCP85_net_15March_sandy.PRM
  Tot(54)       15        3     2070    165.2    546.5   1558.2   677.00    326.8    165.2      0.0     88.9      0.0    161.3       58    235.9    235.9      100     0.000     0.000     0.000     0.000       79        0        0        0        0        2        0    12.943       99     30.0    3.885     0.98        6        6     2070  1212_RCP85_net_15March_sandy.PRM
  Tot(55)       15        3     2071    277.9    455.9   1559.1   685.00    182.9    277.9      0.0    129.0      0.0    162.3       67    177.2    177.2      100     0.000     0.000     0.000     0.000       82        0        0        0        0        1        0    14.227       99     30.0    4.268     1.27        9        6     2071  1212_RCP85_net_15March_sandy.PRM
  Tot(56)       15        3     2072    199.4    539.7   1568.5   693.00    255.7    199.4      0.0     97.4      0.0    156.4       50    202.4    202.4      100     0.000     0.000     0.000     0.000       80        0        0        0        0        2        0    13.415       98     30.0    4.025     1.13        7        6     2072  1212_RCP85_net_15March_sandy.PRM
  Tot(57)       15        3     2073     28.0    617.6   1576.1   701.00    400.6     28.0      0.0      2.3      0.0    174.7       58    263.8    263.8      100     0.000     0.000     0.000     0.000       75        0        0        0        0        2        0    12.493       98     14.6    1.829     0.42        2        6     2073  1212_RCP85_net_15March_sandy.PRM
  Tot(58)       15        3     2074     64.6    574.3   1557.9   709.00    339.4     64.6      0.0     12.0      0.0    166.9       57    236.1    236.1      100     0.000     0.000     0.000     0.000       76        0        0        0        0        2        0    12.814       98     30.0    3.845     0.96        4        6     2074  1212_RCP85_net_15March_sandy.PRM
  Tot(59)       15        3     2075     48.5    623.3   1561.8   717.00    378.5     48.5      0.0      0.0      0.0    184.8       58    254.0    254.0      100     0.000     0.000     0.000     0.000       76        0        0        0        0        3        0    12.760       97     30.0    3.830     0.88        3        6     2075  1212_RCP85_net_15March_sandy.PRM
  Tot(60)       15        3     2076    334.5    473.6   1567.7   725.00    213.8    334.5      0.0    177.5      0.0    153.3       57    187.9    187.9      100     0.000     0.000     0.000     0.000       82        0        0        0        0        2        0    13.849       98     30.0    4.155     1.22        9        6     2076  1212_RCP85_net_15March_sandy.PRM
  Tot(61)       15        3     2077    211.8    523.2   1560.3   733.00    229.1    211.8      0.0     97.3      0.0    164.0       56    191.7    191.7      100     0.000     0.000     0.000     0.000       79        0        0        0        0        2        0    13.470       98     30.0    4.041     1.15        7        6     2077  1212_RCP85_net_15March_sandy.PRM
  Tot(62)       15        3     2078     46.9    582.2   1565.6   742.00    370.4     46.9      0.0      0.0      0.0    164.0       57    253.2    253.2      100     0.000     0.000     0.000     0.000       75        0        0        0        0        2        0    12.469       99     19.4    2.414     0.58        3        6     2078  1212_RCP85_net_15March_sandy.PRM
  Tot(63)       15        3     2079    178.5    581.8   1557.5   750.00    341.9    178.5      0.0     56.6      0.0    165.7       59    249.4    249.4      100     0.000     0.000     0.000     0.000       78        0        0        0        0        2        0    12.779       99     23.5    3.003     0.72        4        6     2079  1212_RCP85_net_15March_sandy.PRM
  Tot(64)       15        3     2080    434.6    536.7   1573.3   758.00    320.3    434.6      0.0    354.0      0.0    175.6       64    230.8    230.8      100     0.000     0.000     0.000     0.000       78        0        0        0        0        3        0    13.231       98     26.3    3.477     0.86        5        6     2080  1212_RCP85_net_15March_sandy.PRM
  Tot(65)       15        3     2081    203.9    585.0   1565.9   767.00    319.9    203.9      0.0     99.2      0.0    165.5       53    237.7    237.7      100     0.000     0.000     0.000     0.000       78        0        0        0        0        3        0    12.869       97     30.0    3.863     0.96        5        6     2081  1212_RCP85_net_15March_sandy.PRM
  Tot(66)       15        3     2082    401.1    422.5   1575.4   775.00    184.7    401.1      0.0    264.5      0.0    157.6       67    169.9    169.9      100     0.000     0.000     0.000     0.000       84        0        0        0        0        0        0    14.175       99     30.0    4.254     1.31       11        6     2082  1212_RCP85_net_15March_sandy.PRM
  Tot(67)       15        3     2083    222.4    598.0   1560.3   784.00    381.6    222.4      0.0    155.4      0.0    234.6       74    225.7    225.7      100     0.000     0.000     0.000     0.000       77        0        0        0        0        2        0    12.953       97     30.0    3.888     0.85        4        6     2083  1212_RCP85_net_15March_sandy.PRM
  Tot(68)       15        3     2084    119.9    581.8   1561.0   792.00    285.8    119.9      0.0      2.8      0.0    190.5       63    223.0    223.0      100     0.000     0.000     0.000     0.000       77        0        0        0        0        2        0    13.192       98     30.0    3.959     0.96        4        6     2084  1212_RCP85_net_15March_sandy.PRM
  Tot(69)       15        3     2085    131.6    521.0   1562.4   801.00    336.6    131.6      0.0     69.2      0.0    169.3       65    217.5    217.5      100     0.000     0.000     0.000     0.000       77        0        0        0        0        1        0    12.738       99     30.0    3.824     0.99        4        6     2085  1212_RCP85_net_15March_sandy.PRM
  Tot(70)       15        3     2086     84.0    542.7   1576.3   810.00    311.0     84.0      0.0     37.6      0.0    174.3       58    196.4    196.4      100     0.000     0.000     0.000     0.000       77        0        0        0        0        2        0    12.894       98     22.5    2.898     0.79        4        6     2086  1212_RCP85_net_15March_sandy.PRM
  Tot(71)       15        3     2087    112.1    587.3   1574.7   818.00    277.8    112.1      0.0     35.9      0.0    156.6       48    209.2    209.2      100     0.000     0.000     0.000     0.000       76        0        0        0        0        3        0    12.688       97     30.0    3.809     1.05        3        6     2087  1212_RCP85_net_15March_sandy.PRM
  Tot(72)       15        3     2088    158.0    562.6   1569.9   827.00    287.2    158.0      0.0     75.3      0.0    163.6       55    211.7    211.7      100     0.000     0.000     0.000     0.000       77        0        0        0        0        2        0    13.105       98     24.2    3.175     0.86        4        6     2088  1212_RCP85_net_15March_sandy.PRM
  Tot(73)       15        3     2089     51.5    608.9   1574.3   836.00    372.3     51.5      0.0     21.1      0.0    162.8       52    249.8    249.8      100     0.000     0.000     0.000     0.000       75        0        0        0        0        3        0    12.324       98      0.9    0.115     0.03        2        6     2089  1212_RCP85_net_15March_sandy.PRM
  Tot(74)       15        3     2090     22.0    593.0   1561.0   845.00    380.2     22.0      0.0      0.0      0.0    172.1       59    241.7    241.7      100     0.000     0.000     0.000     0.000       74        0        0        0        0        2        0    12.647       99     26.5    3.347     0.82        1        6     2090  1212_RCP85_net_15March_sandy.PRM
  Tot(75)       15        3     2091    104.0    557.0   1570.4   854.00    308.3    104.0      0.0     46.0      0.0    179.5       62    198.8    198.8      100     0.000     0.000     0.000     0.000       77        0        0        0        0        1        0    13.143       98     30.0    3.948     1.05        4        6     2091  1212_RCP85_net_15March_sandy.PRM
  Tot(76)       15        3     2092    193.9    510.4   1559.2   863.00    250.3    193.9      0.0     45.1      0.0    178.2       68    197.9    197.9      100     0.000     0.000     0.000     0.000       77        0        0        0        0        1        0    13.176       98     30.0    3.954     1.06        4        6     2092  1212_RCP85_net_15March_sandy.PRM
  Tot(77)       15        3     2093    115.9    531.5   1573.4   872.00    342.0    115.9      0.0     54.2      0.0    177.4       70    229.1    229.1      100     0.000     0.000     0.000     0.000       75        0        0        0        0        1        0    12.539       99     26.6    3.337     0.82        2        6     2093  1212_RCP85_net_15March_sandy.PRM
  Tot(78)       15        3     2094    246.7    499.0   1565.3   881.00    262.9    246.7      0.0    150.6      0.0    164.2       64    202.3    202.3      100     0.000     0.000     0.000     0.000       78        0        0        0        0        1        0    13.279       99     30.0    3.988     1.09        5        6     2094  1212_RCP85_net_15March_sandy.PRM
  Tot(79)       15        3     2095    143.7    496.9   1563.6   890.00    225.5    143.7      0.0     33.7      0.0    159.3       59    174.8    174.8      100     0.000     0.000     0.000     0.000       76        0        0        0        0        1        0    13.135       98     30.0    3.941     1.19        4        6     2095  1212_RCP85_net_15March_sandy.PRM
  Tot(80)       15        3     2096    155.6    580.4   1562.4   899.00    292.3    155.6      0.0     58.4      0.0    182.2       63    220.1    220.1      100     0.000     0.000     0.000     0.000       76        0        0        0        0        1        0    12.983       99     27.1    3.524     0.89        3        6     2096  1212_RCP85_net_15March_sandy.PRM
  Tot(81)       15        3     2097    104.9    570.2   1561.5   908.00    320.1    104.9      0.0     48.4      0.0    164.3       53    218.9    218.9      100     0.000     0.000     0.000     0.000       74        0        0        0        0        3        0    12.362       97     29.5    3.649     0.96        1        6     2097  1212_RCP85_net_15March_sandy.PRM
  Tot(82)       15        3     2098    134.9    532.4   1566.6   917.00    265.1    134.9      0.0     29.1      0.0    160.7       57    197.0    197.0      100     0.000     0.000     0.000     0.000       76        0        0        0        0        2        0    12.866       98     30.0    3.861     1.08        3        6     2098  1212_RCP85_net_15March_sandy.PRM
  Tot(83)       15        3     2099    301.1    525.3   1563.1   927.00    270.9    301.1      0.0    187.5      0.0    156.9       57    210.0    210.0      100     0.000     0.000     0.000     0.000       76        0        0        0        0        2        0    12.733       98     30.0    3.823     1.04        3        6     2099  1212_RCP85_net_15March_sandy.PRM
