AquaCrop 6.0 (March 2017) - Output created on (date) : 07/06/2021   at (time) : 20:26:45

    RunNr     Day1   Month1    Year1     Rain      ETo       GD     CO2      Irri   Infilt   Runoff    Drain   Upflow        E     E/Ex       Tr      TrW   Tr/Trx    SaltIn   SaltOut    SaltUp  SaltProf     Cycle   SaltStr  FertStr  WeedStr  TempStr   ExpStr   StoStr  BioMass  Brelative   HI     Yield     WPet     DayN   MonthN    YearN
                                           mm       mm    °C.day    ppm        mm       mm       mm       mm       mm       mm        %       mm       mm        %    ton/ha    ton/ha    ton/ha    ton/ha      days       %        %        %        %        %        %    ton/ha        %       %    ton/ha    kg/m3
   Tot(1)       15        3     2017     27.6    633.0   1568.6   404.00      0.0     27.6      0.0      0.0      0.0     44.9        7     39.0     39.0       86     0.000     0.000     0.000     0.000       79        0        0        0        0       64       16     1.861       14     23.6    0.438     0.53       11        6     2017  1311_RCP45_rainfed_15March_sandy.PRM
   Tot(2)       15        3     2018    260.5    552.9   1566.6   407.00      0.0    260.5      0.0     81.8      0.0     94.2       23     91.6     91.6       73     0.000     0.000     0.000     0.000       85        0        0        0        1       39       16     5.085       37     28.3    1.439     0.79       14        6     2018  1311_RCP45_rainfed_15March_sandy.PRM
   Tot(3)       15        3     2019     35.8    635.7   1575.6   409.00      0.0     35.8      0.0      0.0      0.0     49.2        8     41.2     41.2       82     0.000     0.000     0.000     0.000       71        0        0        0        0       59       16     1.927       15     17.4    0.336     0.38       10        6     2019  1311_RCP45_rainfed_15March_sandy.PRM
   Tot(4)       15        3     2020    175.3    593.4   1561.8   411.00      0.0    175.3      0.0     36.8      0.0     86.0       15     39.0     39.0       77     0.000     0.000     0.000     0.000       64        0        0        0        0       57       18     2.039       15     10.1    0.205     0.25       12        6     2020  1311_RCP45_rainfed_15March_sandy.PRM
   Tot(5)       15        3     2021    480.2    424.3   1563.5   413.00      0.0    480.2      0.0    233.6      0.0     97.7       36    140.6    140.6       93     0.000     0.000     0.000     0.000       89        0        0        0        1       26        4    10.383       74     30.3    3.147     1.33       17        6     2021  1311_RCP45_rainfed_15March_sandy.PRM
   Tot(6)       15        3     2022    206.6    533.7   1570.6   416.00      0.0    206.6      0.0      0.0      0.0     96.6       25    139.3    139.3       95     0.000     0.000     0.000     0.000       85        0        0        0        0       34        3     8.153       59     30.1    2.458     1.06       13        6     2022  1311_RCP45_rainfed_15March_sandy.PRM
   Tot(7)       15        3     2023    277.1    499.2   1564.9   418.00      0.0    277.1      0.0     91.0      0.0    132.9       29     39.7     39.7       78     0.000     0.000     0.000     0.000       86        0        0        0        0       55       14     2.204       16     26.6    0.587     0.35       15        6     2023  1311_RCP45_rainfed_15March_sandy.PRM
   Tot(8)       15        3     2024     89.6    588.3   1573.5   420.00      0.0     89.6      0.0      0.0      0.0    100.6       18     35.5     35.5       81     0.000     0.000     0.000     0.000       84        0        0        0        1       58       13     1.923       14     16.4    0.316     0.23       13        6     2024  1311_RCP45_rainfed_15March_sandy.PRM
   Tot(9)       15        3     2025     26.4    695.9   1570.2   423.00      0.0     26.4      0.0      0.0      0.0     40.7        6     31.3     31.3       82     0.000     0.000     0.000     0.000       67        0        0        0        0       65       17     1.331       10      8.2    0.109     0.22       10        6     2025  1311_RCP45_rainfed_15March_sandy.PRM
  Tot(10)       15        3     2026    177.7    542.5   1565.0   425.00      0.0    177.7      0.0      0.0      0.0    140.9       28     52.0     52.0       82     0.000     0.000     0.000     0.000       84        0        0        0        0       56        9     2.897       21     30.6    0.887     0.46       12        6     2026  1311_RCP45_rainfed_15March_sandy.PRM
  Tot(11)       15        3     2027     48.1    620.3   1559.6   428.00      0.0     48.1      0.0      0.0      0.0     57.4       10     51.5     51.5       82     0.000     0.000     0.000     0.000       78        0        0        0        0       57       19     2.430       19     29.1    0.708     0.65        7        6     2027  1311_RCP45_rainfed_15March_sandy.PRM
  Tot(12)       15        3     2028    223.5    525.9   1574.8   430.00      0.0    223.5      0.0      0.0      0.0    129.1       35    125.9    125.9       84     0.000     0.000     0.000     0.000       87        0        0        0        0       35        7     8.215       58     30.3    2.487     0.99       16        6     2028  1311_RCP45_rainfed_15March_sandy.PRM
  Tot(13)       15        3     2029     47.0    578.1   1575.2   433.00      0.0     47.0      0.0      0.0      0.0     61.4       11     34.8     34.8       79     0.000     0.000     0.000     0.000       82        0        0        0        0       58       17     1.847       14     12.3    0.228     0.24       10        6     2029  1311_RCP45_rainfed_15March_sandy.PRM
  Tot(14)       15        3     2030    145.1    527.1   1561.9   435.00      0.0    145.1      0.0      0.0      0.0    120.7       28     77.2     77.2       78     0.000     0.000     0.000     0.000       84        0        0        0        0       47       11     4.683       34     30.2    1.416     0.72       12        6     2030  1311_RCP45_rainfed_15March_sandy.PRM
  Tot(15)       15        3     2031    104.7    568.2   1562.4   438.00      0.0    104.7      0.0      0.0      0.0     88.3       22     84.9     84.9       60     0.000     0.000     0.000     0.000       82        0        0        0        0       39       32     5.056       37     25.9    1.310     0.76       10        6     2031  1311_RCP45_rainfed_15March_sandy.PRM
  Tot(16)       15        3     2032     65.1    566.5   1568.7   440.00      0.0     65.1      0.0      0.0      0.0     79.6       15     46.7     46.7       80     0.000     0.000     0.000     0.000       81        0        0        0        0       57       21     2.615       19     30.2    0.789     0.63       10        6     2032  1311_RCP45_rainfed_15March_sandy.PRM
  Tot(17)       15        3     2033    354.1    553.7   1564.1   443.00      0.0    354.1      0.0    171.3      0.0     92.9       20     78.6     78.6       79     0.000     0.000     0.000     0.000       82        0        0        0        0       47       15     4.289       32     30.4    1.302     0.77       11        6     2033  1311_RCP45_rainfed_15March_sandy.PRM
  Tot(18)       15        3     2034    252.9    485.3   1564.5   445.00      0.0    252.9      0.0     63.0      0.0    143.6       32     42.0     42.0       81     0.000     0.000     0.000     0.000       85        0        0        0        0       54       12     2.701       19     30.7    0.830     0.46       13        6     2034  1311_RCP45_rainfed_15March_sandy.PRM
  Tot(19)       15        3     2035    143.6    531.0   1570.0   448.00      0.0    143.6      0.0      0.0      0.0    103.6       26     81.1     81.1       69     0.000     0.000     0.000     0.000       82        0        0        0        0       43       21     4.559       34     29.3    1.336     0.73       10        6     2035  1311_RCP45_rainfed_15March_sandy.PRM
  Tot(20)       15        3     2036    194.1    535.8   1563.4   450.00      0.0    194.1      0.0      0.0      0.0    102.3       26    129.4    129.4       95     0.000     0.000     0.000     0.000       82        0        0        0        0       37        2     8.333       61     30.4    2.534     1.10       10        6     2036  1311_RCP45_rainfed_15March_sandy.PRM
  Tot(21)       15        3     2037    131.3    518.3   1563.5   453.00      0.0    131.3      0.0      0.0      0.0     91.8       23     56.7     56.7       67     0.000     0.000     0.000     0.000       60        0        0        0        0       46       27     3.372       25      8.5    0.287     0.23       11        6     2037  1311_RCP45_rainfed_15March_sandy.PRM
  Tot(22)       15        3     2038    206.3    543.7   1570.9   456.00      0.0    206.3      0.0      2.3      0.0    135.0       30     89.9     89.9       88     0.000     0.000     0.000     0.000       84        0        0        0        0       43        9     5.480       39     30.1    1.650     0.74       12        6     2038  1311_RCP45_rainfed_15March_sandy.PRM
  Tot(23)       15        3     2039    179.6    475.2   1570.5   458.00      0.0    179.6      0.0      0.0      0.0    133.0       35     78.5     78.5       82     0.000     0.000     0.000     0.000       85        0        0        0        0       48        9     5.427       39     30.7    1.667     0.80       13        6     2039  1311_RCP45_rainfed_15March_sandy.PRM
  Tot(24)       15        3     2040     84.2    540.8   1565.3   461.00      0.0     84.2      0.0      0.0      0.0     80.8       16     56.2     56.2       86     0.000     0.000     0.000     0.000       81        0        0        0        0       53       11     3.420       25     30.4    1.038     0.76        9        6     2040  1311_RCP45_rainfed_15March_sandy.PRM
  Tot(25)       15        3     2041     34.1    639.0   1575.5   463.00      0.0     34.1      0.0      0.0      0.0     51.2        8     32.8     32.8       88     0.000     0.000     0.000     0.000       82        0        0        0        0       64       11     1.553       12     24.8    0.385     0.46       10        6     2041  1311_RCP45_rainfed_15March_sandy.PRM
  Tot(26)       15        3     2042     88.5    556.5   1560.6   466.00      0.0     88.5      0.0      0.0      0.0     76.1       19     81.5     81.5       65     0.000     0.000     0.000     0.000       83        0        0        0        0       38       31     5.183       38     24.6    1.275     0.81       10        6     2042  1311_RCP45_rainfed_15March_sandy.PRM
  Tot(27)       15        3     2043    186.0    579.3   1573.4   469.00      0.0    186.0      0.0     40.7      0.0    109.3       20     40.4     40.4       75     0.000     0.000     0.000     0.000       61        0        0        0        0       55       20     2.058       16      8.1    0.166     0.19       11        6     2043  1311_RCP45_rainfed_15March_sandy.PRM
  Tot(28)       15        3     2044    214.6    548.5   1558.9   471.00      0.0    214.6      0.0     46.1      0.0    103.2       22     54.2     54.2       62     0.000     0.000     0.000     0.000       81        0        0        0        0       48       23     3.105       23     17.2    0.535     0.34        9        6     2044  1311_RCP45_rainfed_15March_sandy.PRM
  Tot(29)       15        3     2045    433.7    451.7   1565.8   474.00      0.0    433.7      0.0    201.2      0.0    119.9       50    160.2    160.2       89     0.000     0.000     0.000     0.000       86        0        0        0        0        8        6    11.946       82     30.2    3.612     1.30       13        6     2045  1311_RCP45_rainfed_15March_sandy.PRM
  Tot(30)       15        3     2046    294.2    520.1   1569.3   476.00      0.0    294.2      0.0     81.1      0.0    101.0       25     89.4     89.4       75     0.000     0.000     0.000     0.000       86        0        0        0        1       39       13     5.317       38     29.4    1.564     0.83       14        6     2046  1311_RCP45_rainfed_15March_sandy.PRM
  Tot(31)       15        3     2047    345.4    488.8   1561.1   479.00      0.0    345.4      0.0    132.7      0.0    106.7       28     85.5     85.5       74     0.000     0.000     0.000     0.000       84        0        0        0        0       42       13     5.336       39     29.8    1.589     0.83       12        6     2047  1311_RCP45_rainfed_15March_sandy.PRM
  Tot(32)       15        3     2048    124.0    536.5   1566.6   481.00      0.0    124.0      0.0      1.0      0.0    110.9       26     63.7     63.7       69     0.000     0.000     0.000     0.000       81        0        0        0        0       46       26     3.274       24     24.8    0.811     0.47        9        6     2048  1311_RCP45_rainfed_15March_sandy.PRM
  Tot(33)       15        3     2049     52.1    578.0   1563.5   484.00      0.0     52.1      0.0      0.0      0.0     69.1       12     43.4     43.4       81     0.000     0.000     0.000     0.000       78        0        0        0        0       61       20     2.457       18     29.3    0.720     0.64        8        6     2049  1311_RCP45_rainfed_15March_sandy.PRM
  Tot(34)       15        3     2050    251.4    498.5   1561.1   487.00      0.0    251.4      0.0     45.4      0.0     99.5       31    144.0    144.0       91     0.000     0.000     0.000     0.000       83        0        0        0        0       21        5     9.903       70     30.0    2.974     1.23       10        6     2050  1311_RCP45_rainfed_15March_sandy.PRM
  Tot(35)       15        3     2051    125.2    595.9   1564.2   489.00      0.0    125.2      0.0      0.0      0.0     82.9       17     96.8     96.8       79     0.000     0.000     0.000     0.000       80        0        0        0        0       43       18     4.750       36     29.7    1.411     0.80        8        6     2051  1311_RCP45_rainfed_15March_sandy.PRM
  Tot(36)       15        3     2052    120.1    567.3   1557.1   492.00      0.0    120.1      0.0     51.8      0.0     81.6       16     43.8     43.8       74     0.000     0.000     0.000     0.000       66        0        0        0        0       56       24     2.392       18     14.9    0.356     0.31        8        6     2052  1311_RCP45_rainfed_15March_sandy.PRM
  Tot(37)       15        3     2053    321.9    534.5   1564.9   494.00      0.0    321.9      0.0    172.1      0.0    121.2       23     34.1     34.1       83     0.000     0.000     0.000     0.000       83        0        0        0        0       60       10     1.820       13     26.8    0.487     0.32       11        6     2053  1311_RCP45_rainfed_15March_sandy.PRM
  Tot(38)       15        3     2054    114.2    563.5   1558.0   496.00      0.0    114.2      0.0     25.9      0.0     73.7       19     82.3     82.3       59     0.000     0.000     0.000     0.000       78        0        0        0        0       41       34     4.780       36     14.1    0.672     0.44        6        6     2054  1311_RCP45_rainfed_15March_sandy.PRM
  Tot(39)       15        3     2055    238.5    524.2   1559.0   498.00      0.0    238.5      0.0     17.2      0.0    133.6       30     75.1     75.1       89     0.000     0.000     0.000     0.000       82        0        0        0        0       46        8     4.874       35     30.2    1.473     0.71       10        6     2055  1311_RCP45_rainfed_15March_sandy.PRM
  Tot(40)       15        3     2056    151.9    520.5   1567.4   501.00      0.0    151.9      0.0      1.0      0.0    120.9       26     42.9     42.9       71     0.000     0.000     0.000     0.000       81        0        0        0        0       53       18     2.343       17      7.2    0.168     0.10        8        6     2056  1311_RCP45_rainfed_15March_sandy.PRM
  Tot(41)       15        3     2057     87.9    581.4   1570.5   503.00      0.0     87.9      0.0      0.2      0.0     66.9       12     53.7     53.7       94     0.000     0.000     0.000     0.000       80        0        0        0        0       56        5     2.802       21     30.0    0.841     0.70        8        6     2057  1311_RCP45_rainfed_15March_sandy.PRM
  Tot(42)       15        3     2058    294.3    494.3   1567.7   505.00      0.0    294.3      0.0     71.1      0.0    138.1       33     59.8     59.8       76     0.000     0.000     0.000     0.000       83        0        0        0        0       51       11     3.617       26     30.5    1.104     0.57       12        6     2058  1311_RCP45_rainfed_15March_sandy.PRM
  Tot(43)       15        3     2059    596.6    492.1   1575.3   507.00      0.0    596.6      0.0    347.6      0.0    108.9       34    128.8    128.8       85     0.000     0.000     0.000     0.000       85        0        0        0        0       31        5     9.011       62     30.4    2.739     1.17       13        6     2059  1311_RCP45_rainfed_15March_sandy.PRM
  Tot(44)       15        3     2060    125.0    516.0   1569.3   509.00      0.0    125.0      0.0      0.0      0.0    122.7       26     40.1     40.1       79     0.000     0.000     0.000     0.000       79        0        0        0        0       55       14     2.023       15     22.7    0.459     0.28        7        6     2060  1311_RCP45_rainfed_15March_sandy.PRM
  Tot(45)       15        3     2061    175.2    539.9   1574.4   511.00      0.0    175.2      0.0     69.6      0.0     92.6       21     69.3     69.3       69     0.000     0.000     0.000     0.000       82        0        0        0        0       50       24     3.977       29     30.4    1.208     0.75       10        6     2061  1311_RCP45_rainfed_15March_sandy.PRM
  Tot(46)       15        3     2062    118.3    576.4   1570.1   513.00      0.0    118.3      0.0      0.0      0.0     99.7       18     36.1     36.1       83     0.000     0.000     0.000     0.000       81        0        0        0        0       60       15     1.880       14     16.4    0.308     0.24        9        6     2062  1311_RCP45_rainfed_15March_sandy.PRM
  Tot(47)       15        3     2063    184.8    554.5   1568.0   514.00      0.0    184.8      0.0      0.0      0.0     88.8       18     45.2     45.2       74     0.000     0.000     0.000     0.000       56        0        0        0        0       52       22     2.445       18      6.0    0.147     0.15        7        6     2063  1311_RCP45_rainfed_15March_sandy.PRM
  Tot(48)       15        3     2064    222.8    542.5   1569.6   516.00      0.0    222.8      0.0     10.6      0.0    129.8       33     90.4     90.4       66     0.000     0.000     0.000     0.000       85        0        0        0        0       38       17     5.595       40     24.7    1.385     0.63       13        6     2064  1311_RCP45_rainfed_15March_sandy.PRM
  Tot(49)       15        3     2065     94.6    582.6   1564.3   518.00      0.0     94.6      0.0      0.0      0.0     83.2       15     51.4     51.4       93     0.000     0.000     0.000     0.000       79        0        0        0        0       56        5     2.792       21     30.3    0.845     0.63        7        6     2065  1311_RCP45_rainfed_15March_sandy.PRM
  Tot(50)       15        3     2066    295.3    529.3   1569.0   519.00      0.0    295.3      0.0     92.1      0.0     86.5       24    109.3    109.3       73     0.000     0.000     0.000     0.000       82        0        0        0        0       24       21     6.938       51     26.1    1.810     0.94        9        6     2066  1311_RCP45_rainfed_15March_sandy.PRM
  Tot(51)       15        3     2067    171.3    533.8   1558.7   520.00      0.0    171.3      0.0     32.3      0.0    102.2       21     54.4     54.4       93     0.000     0.000     0.000     0.000       81        0        0        0        0       52        5     3.690       27     30.0    1.107     0.71        9        6     2067  1311_RCP45_rainfed_15March_sandy.PRM
  Tot(52)       15        3     2068    172.9    549.8   1575.3   522.00      0.0    172.9      0.0     31.2      0.0    103.2       22     44.0     44.0       70     0.000     0.000     0.000     0.000       56        0        0        0        0       49       23     2.487       19      5.0    0.124     0.13        9        6     2068  1311_RCP45_rainfed_15March_sandy.PRM
  Tot(53)       15        3     2069    251.5    510.0   1570.5   523.00      0.0    251.5      0.0     60.2      0.0    116.9       32     69.3     69.3       66     0.000     0.000     0.000     0.000       82        0        0        0        0       43       13     4.612       33     30.3    1.396     0.76       10        6     2069  1311_RCP45_rainfed_15March_sandy.PRM
  Tot(54)       15        3     2070    422.9    460.7   1560.5   524.00      0.0    422.9      0.0    133.2      0.0    121.4       49    153.9    153.9       83     0.000     0.000     0.000     0.000       85        0        0        0        0       18        9    10.628       75     29.7    3.157     1.15       13        6     2070  1311_RCP45_rainfed_15March_sandy.PRM
  Tot(55)       15        3     2071    215.4    544.3   1566.2   525.00      0.0    215.4      0.0     54.0      0.0    104.6       22     64.7     64.7       80     0.000     0.000     0.000     0.000       81        0        0        0        0       51       12     3.152       23     30.3    0.954     0.57        8        6     2071  1311_RCP45_rainfed_15March_sandy.PRM
  Tot(56)       15        3     2072    209.5    551.5   1573.6   527.00      0.0    209.5      0.0     13.5      0.0    126.8       25     64.2     64.2       97     0.000     0.000     0.000     0.000       82        0        0        0        0       49        2     3.687       27     30.1    1.109     0.59        9        6     2072  1311_RCP45_rainfed_15March_sandy.PRM
  Tot(57)       15        3     2073    172.6    552.6   1565.2   527.00      0.0    172.6      0.0     49.3      0.0     94.0       18     34.6     34.6       81     0.000     0.000     0.000     0.000       63        0        0        0        0       60       18     1.799       14     10.2    0.184     0.20        8        6     2073  1311_RCP45_rainfed_15March_sandy.PRM
  Tot(58)       15        3     2074    565.6    418.2   1561.8   528.00      0.0    565.6      0.0    317.5      0.0     95.1       36    153.1    153.1      100     0.000     0.000     0.000     0.000       86        0        0        0        0       15       -0    12.482       86     30.0    3.749     1.52       14        6     2074  1311_RCP45_rainfed_15March_sandy.PRM
  Tot(59)       15        3     2075    491.8    497.7   1558.7   529.00      0.0    491.8      0.0    313.7      0.0     99.8       25     94.3     94.3       99     0.000     0.000     0.000     0.000       83        0        0        0        0       33        1     8.055       56     30.0    2.416     1.28       11        6     2075  1311_RCP45_rainfed_15March_sandy.PRM
  Tot(60)       15        3     2076    277.8    495.6   1564.7   530.00      0.0    277.8      0.0     56.6      0.0    130.9       32     54.8     54.8       69     0.000     0.000     0.000     0.000       81        0        0        0        0       48       14     2.776       20     30.5    0.847     0.46        8        6     2076  1311_RCP45_rainfed_15March_sandy.PRM
  Tot(61)       15        3     2077    282.4    510.6   1558.1   530.00      0.0    282.4      0.0     68.8      0.0    109.9       27    104.1    104.1       95     0.000     0.000     0.000     0.000       80        0        0        0        0       41        2     6.822       50     30.1    2.051     0.97        8        6     2077  1311_RCP45_rainfed_15March_sandy.PRM
  Tot(62)       15        3     2078     90.1    558.8   1561.6   531.00      0.0     90.1      0.0      0.0      0.0     89.0       18     59.5     59.5       78     0.000     0.000     0.000     0.000       79        0        0        0        0       50       19     3.279       25     29.7    0.973     0.67        6        6     2078  1311_RCP45_rainfed_15March_sandy.PRM
  Tot(63)       15        3     2079    204.2    518.2   1568.3   531.00      0.0    204.2      0.0     23.0      0.0    110.8       35    110.1    110.1       70     0.000     0.000     0.000     0.000       74        0        0        0        0       29       27     6.773       50     23.5    1.593     0.78        8        6     2079  1311_RCP45_rainfed_15March_sandy.PRM
  Tot(64)       15        3     2080    145.6    552.4   1571.1   531.00      0.0    145.6      0.0     27.1      0.0     76.6       21    111.7    111.7       70     0.000     0.000     0.000     0.000       79        0        0        0        0       35       26     7.147       53     25.1    1.797     0.95        7        6     2080  1311_RCP45_rainfed_15March_sandy.PRM
  Tot(65)       15        3     2081    212.0    566.5   1566.8   531.00      0.0    212.0      0.0     21.0      0.0    113.1       20     45.9     45.9       93     0.000     0.000     0.000     0.000       79        0        0        0        0       61        4     2.334       18     29.7    0.693     0.44        6        6     2081  1311_RCP45_rainfed_15March_sandy.PRM
  Tot(66)       15        3     2082    183.0    541.3   1572.8   531.00      0.0    183.0      0.0      8.5      0.0     72.6       21    131.5    131.5       88     0.000     0.000     0.000     0.000       80        0        0        0        0       35        7     8.031       59     30.3    2.430     1.20        7        6     2082  1311_RCP45_rainfed_15March_sandy.PRM
  Tot(67)       15        3     2083     37.4    597.5   1557.8   532.00      0.0     37.4      0.0      0.0      0.0     53.8        9     34.1     34.1       84     0.000     0.000     0.000     0.000       67        0        0        0        0       62       16     1.710       13     17.4    0.297     0.40        3        6     2083  1311_RCP45_rainfed_15March_sandy.PRM
  Tot(68)       15        3     2084    241.2    551.3   1564.2   532.00      0.0    241.2      0.0     98.0      0.0     73.8       17     67.6     67.6       67     0.000     0.000     0.000     0.000       64        0        0        0        0       41       25     3.958       31     10.2    0.404     0.35        7        6     2084  1311_RCP45_rainfed_15March_sandy.PRM
  Tot(69)       15        3     2085    210.9    552.5   1565.0   532.00      0.0    210.9      0.0     50.0      0.0    102.9       22     62.5     62.5       74     0.000     0.000     0.000     0.000       78        0        0        0        0       47       17     3.572       27     29.0    1.036     0.64        6        6     2085  1311_RCP45_rainfed_15March_sandy.PRM
  Tot(70)       15        3     2086    191.4    564.1   1559.0   532.00      0.0    191.4      0.0     81.3      0.0     65.8       12     36.5     36.5       88     0.000     0.000     0.000     0.000       77        0        0        0        0       61       12     1.880       15     23.5    0.441     0.45        4        6     2086  1311_RCP45_rainfed_15March_sandy.PRM
  Tot(71)       15        3     2087    149.3    513.2   1563.7   533.00      0.0    149.3      0.0      0.0      0.0    122.6       29     55.6     55.6       67     0.000     0.000     0.000     0.000       64        0        0        0        0       48       26     3.162       24     15.4    0.485     0.34        7        6     2087  1311_RCP45_rainfed_15March_sandy.PRM
  Tot(72)       15        3     2088    147.9    582.5   1574.2   533.00      0.0    147.9      0.0     38.5      0.0     69.4       12     32.1     32.1       84     0.000     0.000     0.000     0.000       79        0        0        0        0       62       13     1.471       12     13.4    0.196     0.20        6        6     2088  1311_RCP45_rainfed_15March_sandy.PRM
  Tot(73)       15        3     2089     91.3    552.6   1573.2   533.00      0.0     91.3      0.0      0.0      0.0     79.9       18     77.9     77.9       74     0.000     0.000     0.000     0.000       75        0        0        0        0       45       23     4.537       35     28.1    1.275     0.81        5        6     2089  1311_RCP45_rainfed_15March_sandy.PRM
  Tot(74)       15        3     2090    384.5    483.3   1564.1   534.00      0.0    384.5      0.0    190.3      0.0    114.6       26     39.3     39.3       80     0.000     0.000     0.000     0.000       82        0        0        0        0       56       11     2.317       17     30.6    0.710     0.46        9        6     2090  1311_RCP45_rainfed_15March_sandy.PRM
  Tot(75)       15        3     2091    214.5    558.2   1570.2   534.00      0.0    214.5      0.0    113.5      0.0     67.0       12     33.0     33.0       86     0.000     0.000     0.000     0.000       79        0        0        0        0       61       12     1.672       13     15.4    0.258     0.27        7        6     2091  1311_RCP45_rainfed_15March_sandy.PRM
  Tot(76)       15        3     2092    602.2    411.8   1559.5   535.00      0.0    602.2      0.0    357.3      0.0    109.6       37    125.4    125.4      100     0.000     0.000     0.000     0.000       84        0        0        0        0       23        0    10.795       76     30.3    3.268     1.40       12        6     2092  1311_RCP45_rainfed_15March_sandy.PRM
  Tot(77)       15        3     2093    139.0    576.0   1564.6   535.00      0.0    139.0      0.0      4.7      0.0    102.2       26     85.9     85.9       66     0.000     0.000     0.000     0.000       77        0        0        0        0       35       26     4.803       37     12.4    0.594     0.32        5        6     2093  1311_RCP45_rainfed_15March_sandy.PRM
  Tot(78)       15        3     2094    295.5    496.3   1561.6   535.00      0.0    295.5      0.0     60.1      0.0     95.1       31    132.1    132.1       78     0.000     0.000     0.000     0.000       80        0        0        0        0       25       10     8.592       64     28.7    2.466     1.09        7        6     2094  1311_RCP45_rainfed_15March_sandy.PRM
  Tot(79)       15        3     2095     62.2    561.6   1559.5   536.00      0.0     62.2      0.0      0.0      0.0     74.6       15     48.1     48.1       73     0.000     0.000     0.000     0.000       64        0        0        0        0       53       21     2.751       21     16.5    0.455     0.48        5        6     2095  1311_RCP45_rainfed_15March_sandy.PRM
  Tot(80)       15        3     2096    176.7    557.2   1575.1   536.00      0.0    176.7      0.0     27.9      0.0     81.0       21    107.7    107.7       73     0.000     0.000     0.000     0.000       77        0        0        0        0       33       14     5.858       46     17.9    1.048     0.56        5        6     2096  1311_RCP45_rainfed_15March_sandy.PRM
  Tot(81)       15        3     2097    195.1    565.7   1565.8   537.00      0.0    195.1      0.0      0.0      0.0     91.8       20     73.0     73.0       69     0.000     0.000     0.000     0.000       79        0        0        0        0       44       26     4.125       32     26.0    1.073     0.65        6        6     2097  1311_RCP45_rainfed_15March_sandy.PRM
  Tot(82)       15        3     2098    119.1    579.6   1560.0   537.00      0.0    119.1      0.0      0.0      0.0    107.8       19     33.6     33.6       89     0.000     0.000     0.000     0.000       77        0        0        0        0       66        7     1.650       13     25.7    0.424     0.31        4        6     2098  1311_RCP45_rainfed_15March_sandy.PRM
  Tot(83)       15        3     2099    225.1    528.6   1569.3   538.00      0.0    225.1      0.0     13.4      0.0    121.7       29     87.9     87.9       83     0.000     0.000     0.000     0.000       79        0        0        0        0       46       17     5.211       39     30.1    1.570     0.75        6        6     2099  1311_RCP45_rainfed_15March_sandy.PRM
