AquaCrop 6.0 (March 2017) - Output created on (date) : 07/06/2021   at (time) : 20:29:14

    RunNr     Day1   Month1    Year1     Rain      ETo       GD     CO2      Irri   Infilt   Runoff    Drain   Upflow        E     E/Ex       Tr      TrW   Tr/Trx    SaltIn   SaltOut    SaltUp  SaltProf     Cycle   SaltStr  FertStr  WeedStr  TempStr   ExpStr   StoStr  BioMass  Brelative   HI     Yield     WPet     DayN   MonthN    YearN
                                           mm       mm    °C.day    ppm        mm       mm       mm       mm       mm       mm        %       mm       mm        %    ton/ha    ton/ha    ton/ha    ton/ha      days       %        %        %        %        %        %    ton/ha        %       %    ton/ha    kg/m3
   Tot(1)       15        3     2017     27.6    633.0   1568.6   404.00      0.0     27.6      0.0      0.0      0.0     53.9        9     66.1     66.1       87     0.000     0.000     0.000     0.000       77        0        0        0        0       54       14     3.061       23     24.7    0.755     0.64       11        6     2017  1311_RCP45_rainfed_15March_sandyloam.PRM
   Tot(2)       15        3     2018    260.5    552.9   1566.6   407.00      0.0    260.5      0.0     32.1      0.0     89.6       26    156.8    156.8       82     0.000     0.000     0.000     0.000       85        0        0        0        1       26        9     8.766       64     29.7    2.603     1.07       14        6     2018  1311_RCP45_rainfed_15March_sandyloam.PRM
   Tot(3)       15        3     2019     35.8    635.7   1575.6   409.00      0.0     35.8      0.0      0.0      0.0     59.0       11     71.5     71.5       81     0.000     0.000     0.000     0.000       69        0        0        0        0       50       16     3.316       25     17.4    0.576     0.46       10        6     2019  1311_RCP45_rainfed_15March_sandyloam.PRM
   Tot(4)       15        3     2020    175.3    593.4   1561.8   411.00      0.0    175.3      0.0      0.0      0.0     93.5       19     74.9     74.9       75     0.000     0.000     0.000     0.000       66        0        0        0        0       47       19     3.842       29     13.0    0.500     0.40       12        6     2020  1311_RCP45_rainfed_15March_sandyloam.PRM
   Tot(5)       15        3     2021    480.2    424.3   1563.5   413.00      0.0    480.2      0.0    204.1      0.0    104.8       41    164.2    164.2       98     0.000     0.000     0.000     0.000       89        0        0        0        1       20        1    11.892       84     30.4    3.614     1.35       17        6     2021  1311_RCP45_rainfed_15March_sandyloam.PRM
   Tot(6)       15        3     2022    206.6    533.7   1570.6   416.00      0.0    206.6      0.0      0.0      0.0     96.8       28    175.5    175.5       94     0.000     0.000     0.000     0.000       85        0        0        0        0       30        4    10.140       73     30.5    3.089     1.15       13        6     2022  1311_RCP45_rainfed_15March_sandyloam.PRM
   Tot(7)       15        3     2023    277.1    499.2   1564.9   418.00      0.0    277.1      0.0     56.2      0.0    131.1       33     75.6     75.6       79     0.000     0.000     0.000     0.000       86        0        0        0        0       46       13     4.143       30     30.7    1.271     0.62       15        6     2023  1311_RCP45_rainfed_15March_sandyloam.PRM
   Tot(8)       15        3     2024     89.6    588.3   1573.5   420.00      0.0     89.6      0.0      0.0      0.0    108.5       22     72.0     72.0       77     0.000     0.000     0.000     0.000       84        0        0        0        1       48       18     3.840       28     18.3    0.704     0.39       13        6     2024  1311_RCP45_rainfed_15March_sandyloam.PRM
   Tot(9)       15        3     2025     26.4    695.9   1570.2   423.00      0.0     26.4      0.0      0.0      0.0     49.0        8     61.7     61.7       81     0.000     0.000     0.000     0.000       65        0        0        0        0       55       17     2.558       19     12.3    0.314     0.36       10        6     2025  1311_RCP45_rainfed_15March_sandyloam.PRM
  Tot(10)       15        3     2026    177.7    542.5   1565.0   425.00      0.0    177.7      0.0      0.0      0.0    140.6       32     86.6     86.6       85     0.000     0.000     0.000     0.000       84        0        0        0        0       49        7     4.627       34     30.6    1.417     0.63       12        6     2026  1311_RCP45_rainfed_15March_sandyloam.PRM
  Tot(11)       15        3     2027     48.1    620.3   1559.6   428.00      0.0     48.1      0.0      0.0      0.0     60.5       12     94.4     94.4       77     0.000     0.000     0.000     0.000       76        0        0        0        0       47       22     4.446       34     28.7    1.278     0.83        7        6     2027  1311_RCP45_rainfed_15March_sandyloam.PRM
  Tot(12)       15        3     2028    223.5    525.9   1574.8   430.00      0.0    223.5      0.0      0.0      0.0    124.9       38    164.8    164.8       91     0.000     0.000     0.000     0.000       87        0        0        0        0       29        4    10.445       74     30.4    3.177     1.11       16        6     2028  1311_RCP45_rainfed_15March_sandyloam.PRM
  Tot(13)       15        3     2029     47.0    578.1   1575.2   433.00      0.0     47.0      0.0      0.0      0.0     68.0       15     70.6     70.6       75     0.000     0.000     0.000     0.000       70        0        0        0        0       48       19     3.584       27     16.3    0.585     0.44       10        6     2029  1311_RCP45_rainfed_15March_sandyloam.PRM
  Tot(14)       15        3     2030    145.1    527.1   1561.9   435.00      0.0    145.1      0.0      0.0      0.0    121.7       32    117.1    117.1       82     0.000     0.000     0.000     0.000       84        0        0        0        0       41        9     6.970       50     30.6    2.134     0.90       12        6     2030  1311_RCP45_rainfed_15March_sandyloam.PRM
  Tot(15)       15        3     2031    104.7    568.2   1562.4   438.00      0.0    104.7      0.0      0.0      0.0     91.1       25    126.2    126.2       72     0.000     0.000     0.000     0.000       82        0        0        0        0       35       25     7.221       52     28.4    2.050     0.95       10        6     2031  1311_RCP45_rainfed_15March_sandyloam.PRM
  Tot(16)       15        3     2032     65.1    566.5   1568.7   440.00      0.0     65.1      0.0      0.0      0.0     83.8       18     88.1     88.1       79     0.000     0.000     0.000     0.000       78        0        0        0        0       48       21     4.995       37     28.9    1.445     0.86       10        6     2032  1311_RCP45_rainfed_15March_sandyloam.PRM
  Tot(17)       15        3     2033    354.1    553.7   1564.1   443.00      0.0    354.1      0.0    132.1      0.0     96.3       23    115.4    115.4       82     0.000     0.000     0.000     0.000       82        0        0        0        0       43       13     6.170       46     30.6    1.885     0.90       11        6     2033  1311_RCP45_rainfed_15March_sandyloam.PRM
  Tot(18)       15        3     2034    252.9    485.3   1564.5   445.00      0.0    252.9      0.0     29.3      0.0    126.5       37     92.4     92.4       79     0.000     0.000     0.000     0.000       85        0        0        0        0       43       12     5.954       43     30.6    1.820     0.84       13        6     2034  1311_RCP45_rainfed_15March_sandyloam.PRM
  Tot(19)       15        3     2035    143.6    531.0   1570.0   448.00      0.0    143.6      0.0      0.0      0.0     97.9       29    131.1    131.1       75     0.000     0.000     0.000     0.000       82        0        0        0        0       32       15     7.457       55     30.0    2.235     0.98       10        6     2035  1311_RCP45_rainfed_15March_sandyloam.PRM
  Tot(20)       15        3     2036    194.1    535.8   1563.4   450.00      0.0    194.1      0.0      0.0      0.0    102.8       29    163.4    163.4       97     0.000     0.000     0.000     0.000       82        0        0        0        0       30        1    10.274       75     30.4    3.125     1.18       10        6     2036  1311_RCP45_rainfed_15March_sandyloam.PRM
  Tot(21)       15        3     2037    131.3    518.3   1563.5   453.00      0.0    131.3      0.0      0.0      0.0    100.1       28     90.8     90.8       72     0.000     0.000     0.000     0.000       65        0        0        0        0       40       23     5.180       38     15.6    0.811     0.48       11        6     2037  1311_RCP45_rainfed_15March_sandyloam.PRM
  Tot(22)       15        3     2038    206.3    543.7   1570.9   456.00      0.0    206.3      0.0      0.0      0.0    128.5       35    141.8    141.8       86     0.000     0.000     0.000     0.000       84        0        0        0        0       37        7     8.497       60     30.3    2.578     0.96       12        6     2038  1311_RCP45_rainfed_15March_sandyloam.PRM
  Tot(23)       15        3     2039    179.6    475.2   1570.5   458.00      0.0    179.6      0.0      0.0      0.0    127.9       39    120.7    120.7       87     0.000     0.000     0.000     0.000       85        0        0        0        0       42        6     8.089       58     30.8    2.493     1.02       13        6     2039  1311_RCP45_rainfed_15March_sandyloam.PRM
  Tot(24)       15        3     2040     84.2    540.8   1565.3   461.00      0.0     84.2      0.0      0.0      0.0     82.0       20    100.8    100.8       80     0.000     0.000     0.000     0.000       81        0        0        0        0       44       16     6.075       45     30.2    1.832     1.01        9        6     2040  1311_RCP45_rainfed_15March_sandyloam.PRM
  Tot(25)       15        3     2041     34.1    639.0   1575.5   463.00      0.0     34.1      0.0      0.0      0.0     61.0       11     64.4     64.4       83     0.000     0.000     0.000     0.000       76        0        0        0        0       53       15     2.969       22     25.7    0.763     0.62       10        6     2041  1311_RCP45_rainfed_15March_sandyloam.PRM
  Tot(26)       15        3     2042     88.5    556.5   1560.6   466.00      0.0     88.5      0.0      0.0      0.0     79.3       22    123.2    123.2       73     0.000     0.000     0.000     0.000       81        0        0        0        0       30       23     7.610       56     27.9    2.125     1.05       10        6     2042  1311_RCP45_rainfed_15March_sandyloam.PRM
  Tot(27)       15        3     2043    186.0    579.3   1573.4   469.00      0.0    186.0      0.0      0.0      0.0    119.0       26     74.0     74.0       74     0.000     0.000     0.000     0.000       64        0        0        0        0       46       20     3.624       27     13.1    0.475     0.35       11        6     2043  1311_RCP45_rainfed_15March_sandyloam.PRM
  Tot(28)       15        3     2044    214.6    548.5   1558.9   471.00      0.0    214.6      0.0      6.7      0.0    102.4       26     94.3     94.3       72     0.000     0.000     0.000     0.000       81        0        0        0        0       40       16     5.370       41     26.3    1.410     0.72        9        6     2044  1311_RCP45_rainfed_15March_sandyloam.PRM
  Tot(29)       15        3     2045    433.7    451.7   1565.8   474.00      0.0    433.7      0.0    190.6      0.0    125.2       54    188.4    188.4      100     0.000     0.000     0.000     0.000       86        0        0        0        0        4        0    13.708       94     30.1    4.133     1.33       13        6     2045  1311_RCP45_rainfed_15March_sandyloam.PRM
  Tot(30)       15        3     2046    294.2    520.1   1569.3   476.00      0.0    294.2      0.0     43.9      0.0     93.7       27    135.8    135.8       81     0.000     0.000     0.000     0.000       86        0        0        0        1       31       10     8.018       58     30.3    2.429     1.06       14        6     2046  1311_RCP45_rainfed_15March_sandyloam.PRM
  Tot(31)       15        3     2047    345.4    488.8   1561.1   479.00      0.0    345.4      0.0     96.2      0.0     94.1       30    135.9    135.9       78     0.000     0.000     0.000     0.000       84        0        0        0        0       31       11     8.390       61     30.1    2.529     1.10       12        6     2047  1311_RCP45_rainfed_15March_sandyloam.PRM
  Tot(32)       15        3     2048    124.0    536.5   1566.6   481.00      0.0    124.0      0.0      0.0      0.0    117.7       32     96.9     96.9       75     0.000     0.000     0.000     0.000       81        0        0        0        0       41       20     4.939       37     30.2    1.492     0.70        9        6     2048  1311_RCP45_rainfed_15March_sandyloam.PRM
  Tot(33)       15        3     2049     52.1    578.0   1563.5   484.00      0.0     52.1      0.0      0.0      0.0     74.1       15     78.9     78.9       84     0.000     0.000     0.000     0.000       72        0        0        0        0       50       17     4.537       34     24.4    1.108     0.73        8        6     2049  1311_RCP45_rainfed_15March_sandyloam.PRM
  Tot(34)       15        3     2050    251.4    498.5   1561.1   487.00      0.0    251.4      0.0     34.6      0.0     99.5       34    179.3    179.3      100     0.000     0.000     0.000     0.000       83        0        0        0        0       12        0    12.359       88     30.3    3.751     1.35       10        6     2050  1311_RCP45_rainfed_15March_sandyloam.PRM
  Tot(35)       15        3     2051    125.2    595.9   1564.2   489.00      0.0    125.2      0.0      0.0      0.0     87.3       21    134.4    134.4       80     0.000     0.000     0.000     0.000       80        0        0        0        0       40       16     6.460       49     30.3    1.957     0.89        8        6     2051  1311_RCP45_rainfed_15March_sandyloam.PRM
  Tot(36)       15        3     2052    120.1    567.3   1557.1   492.00      0.0    120.1      0.0     51.0      0.0     89.1       19     73.7     73.7       83     0.000     0.000     0.000     0.000       67        0        0        0        0       49       18     3.969       30     16.2    0.643     0.42        8        6     2052  1311_RCP45_rainfed_15March_sandyloam.PRM
  Tot(37)       15        3     2053    321.9    534.5   1564.9   494.00      0.0    321.9      0.0    140.5      0.0    117.3       27     69.3     69.3       80     0.000     0.000     0.000     0.000       83        0        0        0        0       49       11     3.636       27     30.8    1.120     0.62       11        6     2053  1311_RCP45_rainfed_15March_sandyloam.PRM
  Tot(38)       15        3     2054    114.2    563.5   1558.0   496.00      0.0    114.2      0.0     14.4      0.0     76.1       23    134.8    134.8       75     0.000     0.000     0.000     0.000       78        0        0        0        0       31       25     7.536       56     29.0    2.184     1.04        6        6     2054  1311_RCP45_rainfed_15March_sandyloam.PRM
  Tot(39)       15        3     2055    238.5    524.2   1559.0   498.00      0.0    238.5      0.0      0.0      0.0    130.8       34    121.6    121.6       88     0.000     0.000     0.000     0.000       82        0        0        0        0       40        6     7.558       55     30.2    2.279     0.91       10        6     2055  1311_RCP45_rainfed_15March_sandyloam.PRM
  Tot(40)       15        3     2056    151.9    520.5   1567.4   501.00      0.0    151.9      0.0      0.0      0.0    127.0       33     80.6     80.6       79     0.000     0.000     0.000     0.000       81        0        0        0        0       49       13     4.363       32     30.8    1.344     0.65        8        6     2056  1311_RCP45_rainfed_15March_sandyloam.PRM
  Tot(41)       15        3     2057     87.9    581.4   1570.5   503.00      0.0     87.9      0.0      0.0      0.0     74.8       15    102.3    102.3       92     0.000     0.000     0.000     0.000       80        0        0        0        0       47        7     5.243       40     30.1    1.580     0.89        8        6     2057  1311_RCP45_rainfed_15March_sandyloam.PRM
  Tot(42)       15        3     2058    294.3    494.3   1567.7   505.00      0.0    294.3      0.0     39.7      0.0    122.1       36    108.0    108.0       82     0.000     0.000     0.000     0.000       83        0        0        0        0       43        8     6.519       47     30.7    2.000     0.88       12        6     2058  1311_RCP45_rainfed_15March_sandyloam.PRM
  Tot(43)       15        3     2059    596.6    492.1   1575.3   507.00      0.0    596.6      0.0    294.3      0.0    112.1       39    178.4    178.4       97     0.000     0.000     0.000     0.000       85        0        0        0        0       17        1    12.281       85     30.7    3.772     1.31       13        6     2059  1311_RCP45_rainfed_15March_sandyloam.PRM
  Tot(44)       15        3     2060    125.0    516.0   1569.3   509.00      0.0    125.0      0.0      0.0      0.0    128.9       33     77.7     77.7       81     0.000     0.000     0.000     0.000       79        0        0        0        0       48       13     4.003       30     30.9    1.236     0.60        7        6     2060  1311_RCP45_rainfed_15March_sandyloam.PRM
  Tot(45)       15        3     2061    175.2    539.9   1574.4   511.00      0.0    175.2      0.0     63.1      0.0    107.6       30     97.9     97.9       77     0.000     0.000     0.000     0.000       82        0        0        0        0       42       18     5.635       41     30.7    1.728     0.84       10        6     2061  1311_RCP45_rainfed_15March_sandyloam.PRM
  Tot(46)       15        3     2062    118.3    576.4   1570.1   513.00      0.0    118.3      0.0      0.0      0.0    107.0       22     71.9     71.9       79     0.000     0.000     0.000     0.000       66        0        0        0        0       49       18     3.738       28     16.2    0.606     0.45        9        6     2062  1311_RCP45_rainfed_15March_sandyloam.PRM
  Tot(47)       15        3     2063    184.8    554.5   1568.0   514.00      0.0    184.8      0.0      0.0      0.0     98.8       23     77.8     77.8       75     0.000     0.000     0.000     0.000       64        0        0        0        0       45       20     4.044       31     15.1    0.612     0.40        7        6     2063  1311_RCP45_rainfed_15March_sandyloam.PRM
  Tot(48)       15        3     2064    222.8    542.5   1569.6   516.00      0.0    222.8      0.0      0.0      0.0    116.9       34    141.8    141.8       77     0.000     0.000     0.000     0.000       85        0        0        0        0       30       11     8.676       63     30.3    2.627     1.03       13        6     2064  1311_RCP45_rainfed_15March_sandyloam.PRM
  Tot(49)       15        3     2065     94.6    582.6   1564.3   518.00      0.0     94.6      0.0      0.0      0.0     85.7       18    102.0    102.0       88     0.000     0.000     0.000     0.000       79        0        0        0        0       47       12     5.511       41     30.2    1.666     0.89        7        6     2065  1311_RCP45_rainfed_15March_sandyloam.PRM
  Tot(50)       15        3     2066    295.3    529.3   1569.0   519.00      0.0    295.3      0.0     39.7      0.0     80.7       25    168.0    168.0       90     0.000     0.000     0.000     0.000       82        0        0        0        0       14       11    10.249       75     29.4    3.016     1.23        9        6     2066  1311_RCP45_rainfed_15March_sandyloam.PRM
  Tot(51)       15        3     2067    171.3    533.8   1558.7   520.00      0.0    171.3      0.0      0.0      0.0     97.9       23    103.0    103.0       92     0.000     0.000     0.000     0.000       81        0        0        0        0       43        4     6.888       50     30.0    2.068     1.03        9        6     2067  1311_RCP45_rainfed_15March_sandyloam.PRM
  Tot(52)       15        3     2068    172.9    549.8   1575.3   522.00      0.0    172.9      0.0     14.8      0.0    116.3       28     79.6     79.6       75     0.000     0.000     0.000     0.000       82        0        0        0        0       43       15     4.233       31     21.3    0.903     0.47        9        6     2068  1311_RCP45_rainfed_15March_sandyloam.PRM
  Tot(53)       15        3     2069    251.5    510.0   1570.5   523.00      0.0    251.5      0.0     34.2      0.0    114.3       37    123.6    123.6       81     0.000     0.000     0.000     0.000       82        0        0        0        0       34        8     8.134       58     30.7    2.500     1.07       10        6     2069  1311_RCP45_rainfed_15March_sandyloam.PRM
  Tot(54)       15        3     2070    422.9    460.7   1560.5   524.00      0.0    422.9      0.0    118.8      0.0    128.0       54    193.5    193.5       95     0.000     0.000     0.000     0.000       85        0        0        0        0        6        3    13.148       92     30.3    3.989     1.24       13        6     2070  1311_RCP45_rainfed_15March_sandyloam.PRM
  Tot(55)       15        3     2071    215.4    544.3   1566.2   525.00      0.0    215.4      0.0     16.3      0.0    105.5       27    102.8    102.8       79     0.000     0.000     0.000     0.000       81        0        0        0        0       44       12     5.140       38     30.4    1.564     0.76        8        6     2071  1311_RCP45_rainfed_15March_sandyloam.PRM
  Tot(56)       15        3     2072    209.5    551.5   1573.6   527.00      0.0    209.5      0.0      0.0      0.0    118.8       28    119.4    119.4       92     0.000     0.000     0.000     0.000       82        0        0        0        0       42        5     6.831       50     30.2    2.064     0.87        9        6     2072  1311_RCP45_rainfed_15March_sandyloam.PRM
  Tot(57)       15        3     2073    172.6    552.6   1565.2   527.00      0.0    172.6      0.0      8.3      0.0    101.6       22     68.2     68.2       83     0.000     0.000     0.000     0.000       64        0        0        0        0       52       17     3.486       26     15.3    0.532     0.41        8        6     2073  1311_RCP45_rainfed_15March_sandyloam.PRM
  Tot(58)       15        3     2074    565.6    418.2   1561.8   528.00      0.0    565.6      0.0    303.2      0.0     99.0       39    163.6    163.6      100     0.000     0.000     0.000     0.000       86        0        0        0        0       10        0    13.242       91     30.0    3.974     1.52       14        6     2074  1311_RCP45_rainfed_15March_sandyloam.PRM
  Tot(59)       15        3     2075    491.8    497.7   1558.7   529.00      0.0    491.8      0.0    289.1      0.0     92.4       26    127.3    127.3       99     0.000     0.000     0.000     0.000       83        0        0        0        0       24        1    10.369       73     30.0    3.111     1.44       11        6     2075  1311_RCP45_rainfed_15March_sandyloam.PRM
  Tot(60)       15        3     2076    277.8    495.6   1564.7   530.00      0.0    277.8      0.0     21.2      0.0    119.6       37    103.5    103.5       78     0.000     0.000     0.000     0.000       81        0        0        0        0       41       10     5.472       40     30.6    1.677     0.75        8        6     2076  1311_RCP45_rainfed_15March_sandyloam.PRM
  Tot(61)       15        3     2077    282.4    510.6   1558.1   530.00      0.0    282.4      0.0     35.0      0.0     97.7       27    150.1    150.1       96     0.000     0.000     0.000     0.000       80        0        0        0        0       32        1     9.640       71     30.1    2.903     1.19        8        6     2077  1311_RCP45_rainfed_15March_sandyloam.PRM
  Tot(62)       15        3     2078     90.1    558.8   1561.6   531.00      0.0     90.1      0.0      0.0      0.0     91.6       22    100.1    100.1       79     0.000     0.000     0.000     0.000       79        0        0        0        0       43       14     5.514       42     30.0    1.653     0.88        6        6     2078  1311_RCP45_rainfed_15March_sandyloam.PRM
  Tot(63)       15        3     2079    204.2    518.2   1568.3   531.00      0.0    204.2      0.0      7.8      0.0    109.7       40    166.9    166.9       81     0.000     0.000     0.000     0.000       80        0        0        0        0       17       18     9.913       74     28.6    2.835     1.04        8        6     2079  1311_RCP45_rainfed_15March_sandyloam.PRM
  Tot(64)       15        3     2080    145.6    552.4   1571.1   531.00      0.0    145.6      0.0     10.4      0.0     80.5       24    164.3    164.3       86     0.000     0.000     0.000     0.000       79        0        0        0        0       22       16    10.283       76     29.5    3.032     1.24        7        6     2080  1311_RCP45_rainfed_15March_sandyloam.PRM
  Tot(65)       15        3     2081    212.0    566.5   1566.8   531.00      0.0    212.0      0.0      0.0      0.0    108.0       23     92.6     92.6       89     0.000     0.000     0.000     0.000       79        0        0        0        0       51        5     4.744       36     30.8    1.460     0.73        6        6     2081  1311_RCP45_rainfed_15March_sandyloam.PRM
  Tot(66)       15        3     2082    183.0    541.3   1572.8   531.00      0.0    183.0      0.0      0.0      0.0     74.0       24    174.5    174.5       94     0.000     0.000     0.000     0.000       80        0        0        0        0       28        5    10.772       78     30.5    3.288     1.33        7        6     2082  1311_RCP45_rainfed_15March_sandyloam.PRM
  Tot(67)       15        3     2083     37.4    597.5   1557.8   532.00      0.0     37.4      0.0      0.0      0.0     64.7       12     67.1     67.1       83     0.000     0.000     0.000     0.000       65        0        0        0        0       52       16     3.324       26     19.3    0.642     0.56        3        6     2083  1311_RCP45_rainfed_15March_sandyloam.PRM
  Tot(68)       15        3     2084    241.2    551.3   1564.2   532.00      0.0    241.2      0.0     47.3      0.0     73.3       21    119.4    119.4       73     0.000     0.000     0.000     0.000       79        0        0        0        0       29       17     6.619       51     14.2    0.942     0.50        7        6     2084  1311_RCP45_rainfed_15March_sandyloam.PRM
  Tot(69)       15        3     2085    210.9    552.5   1565.0   532.00      0.0    210.9      0.0     11.4      0.0    100.0       24    104.2    104.2       80     0.000     0.000     0.000     0.000       78        0        0        0        0       41       15     5.954       45     29.9    1.780     0.89        6        6     2085  1311_RCP45_rainfed_15March_sandyloam.PRM
  Tot(70)       15        3     2086    191.4    564.1   1559.0   532.00      0.0    191.4      0.0     38.3      0.0     72.5       15     72.5     72.5       83     0.000     0.000     0.000     0.000       68        0        0        0        0       52       17     3.849       30     22.2    0.855     0.67        4        6     2086  1311_RCP45_rainfed_15March_sandyloam.PRM
  Tot(71)       15        3     2087    149.3    513.2   1563.7   533.00      0.0    149.3      0.0      0.0      0.0    130.5       35     90.7     90.7       77     0.000     0.000     0.000     0.000       80        0        0        0        0       43       17     5.116       39     30.3    1.548     0.71        7        6     2087  1311_RCP45_rainfed_15March_sandyloam.PRM
  Tot(72)       15        3     2088    147.9    582.5   1574.2   533.00      0.0    147.9      0.0      2.2      0.0     76.6       15     61.8     61.8       85     0.000     0.000     0.000     0.000       66        0        0        0        0       53       15     2.764       22     17.4    0.481     0.43        6        6     2088  1311_RCP45_rainfed_15March_sandyloam.PRM
  Tot(73)       15        3     2089     91.3    552.6   1573.2   533.00      0.0     91.3      0.0      0.0      0.0     82.3       21    119.6    119.6       79     0.000     0.000     0.000     0.000       77        0        0        0        0       38       21     6.900       53     29.0    2.003     0.99        5        6     2089  1311_RCP45_rainfed_15March_sandyloam.PRM
  Tot(74)       15        3     2090    384.5    483.3   1564.1   534.00      0.0    384.5      0.0    156.3      0.0    111.6       30     77.5     77.5       79     0.000     0.000     0.000     0.000       82        0        0        0        0       47       10     4.628       34     30.6    1.415     0.75        9        6     2090  1311_RCP45_rainfed_15March_sandyloam.PRM
  Tot(75)       15        3     2091    214.5    558.2   1570.2   534.00      0.0    214.5      0.0     74.2      0.0     73.3       15     66.5     66.5       84     0.000     0.000     0.000     0.000       80        0        0        0        0       51       14     3.317       26     17.3    0.575     0.41        7        6     2091  1311_RCP45_rainfed_15March_sandyloam.PRM
  Tot(76)       15        3     2092    602.2    411.8   1559.5   535.00      0.0    602.2      0.0    334.7      0.0    111.5       41    146.2    146.2      100     0.000     0.000     0.000     0.000       84        0        0        0        0       17        0    12.264       86     30.2    3.708     1.45       12        6     2092  1311_RCP45_rainfed_15March_sandyloam.PRM
  Tot(77)       15        3     2093    139.0    576.0   1564.6   535.00      0.0    139.0      0.0      0.0      0.0    102.3       29    131.8    131.8       76     0.000     0.000     0.000     0.000       77        0        0        0        0       28       18     7.175       55     24.0    1.722     0.75        5        6     2093  1311_RCP45_rainfed_15March_sandyloam.PRM
  Tot(78)       15        3     2094    295.5    496.3   1561.6   535.00      0.0    295.5      0.0     17.1      0.0     95.3       33    176.9    176.9       92     0.000     0.000     0.000     0.000       80        0        0        0        0       14        4    11.080       82     29.8    3.307     1.22        7        6     2094  1311_RCP45_rainfed_15March_sandyloam.PRM
  Tot(79)       15        3     2095     62.2    561.6   1559.5   536.00      0.0     62.2      0.0      0.0      0.0     83.3       19     82.5     82.5       78     0.000     0.000     0.000     0.000       65        0        0        0        0       45       19     4.714       37     17.8    0.841     0.61        5        6     2095  1311_RCP45_rainfed_15March_sandyloam.PRM
  Tot(80)       15        3     2096    176.7    557.2   1575.1   536.00      0.0    176.7      0.0      0.9      0.0     86.9       25    171.7    171.7       89     0.000     0.000     0.000     0.000       77        0        0        0        0       24        6     9.129       71     19.1    1.748     0.68        5        6     2096  1311_RCP45_rainfed_15March_sandyloam.PRM
  Tot(81)       15        3     2097    195.1    565.7   1565.8   537.00      0.0    195.1      0.0      0.0      0.0     93.0       24    116.3    116.3       73     0.000     0.000     0.000     0.000       79        0        0        0        0       33       22     6.485       50     28.1    1.821     0.87        6        6     2097  1311_RCP45_rainfed_15March_sandyloam.PRM
  Tot(82)       15        3     2098    119.1    579.6   1560.0   537.00      0.0    119.1      0.0      0.0      0.0    117.9       23     65.9     65.9       86     0.000     0.000     0.000     0.000       77        0        0        0        0       56        8     3.159       24     30.8    0.974     0.55        4        6     2098  1311_RCP45_rainfed_15March_sandyloam.PRM
  Tot(83)       15        3     2099    225.1    528.6   1569.3   538.00      0.0    225.1      0.0      0.0      0.0    114.4       32    137.4    137.4       87     0.000     0.000     0.000     0.000       79        0        0        0        0       36       13     8.210       61     29.8    2.444     0.98        6        6     2099  1311_RCP45_rainfed_15March_sandyloam.PRM
