AquaCrop 6.0 (March 2017) - Output created on (date) : 28/06/2021   at (time) : 14:26:32

    RunNr     Day1   Month1    Year1     Rain      ETo       GD     CO2      Irri   Infilt   Runoff    Drain   Upflow        E     E/Ex       Tr      TrW   Tr/Trx    SaltIn   SaltOut    SaltUp  SaltProf     Cycle   SaltStr  FertStr  WeedStr  TempStr   ExpStr   StoStr  BioMass  Brelative   HI     Yield     WPet     DayN   MonthN    YearN
                                           mm       mm    °C.day    ppm        mm       mm       mm       mm       mm       mm        %       mm       mm        %    ton/ha    ton/ha    ton/ha    ton/ha      days       %        %        %        %        %        %    ton/ha        %       %    ton/ha    kg/m3
   Tot(1)       15        3     2017     27.6    633.0   1568.6   404.00    439.4     27.6      0.0      0.0      0.0    214.4       65    271.5    271.5      100     0.000     0.000     0.000     0.000       82        0        0        0        0        2        0    12.961       98     30.0    3.889     0.81       11        6     2017  1311_RCP45_net_15March_sandyloam.PRM
   Tot(2)       15        3     2018    260.5    552.9   1566.6   407.00    385.6    260.5      0.0    171.2      0.0    233.3       81    247.7    247.7      100     0.000     0.000     0.000     0.000       85        0        0        0        1        1        0    13.431       99     30.0    4.032     0.84       14        6     2018  1311_RCP45_net_15March_sandyloam.PRM
   Tot(3)       15        3     2019     35.8    635.7   1575.6   409.00    472.4     35.8      0.0      0.0      0.0    248.2       78    278.7    278.7      100     0.000     0.000     0.000     0.000       82        0        0        0        0        2        0    12.945       99     30.0    3.887     0.74       10        6     2019  1311_RCP45_net_15March_sandyloam.PRM
   Tot(4)       15        3     2020    175.3    593.4   1561.8   411.00    420.6    175.3      0.0     90.5      0.0    208.6       70    283.6    283.6      100     0.000     0.000     0.000     0.000       84        0        0        0        0        2        0    13.151       99     30.0    3.950     0.80       12        6     2020  1311_RCP45_net_15March_sandyloam.PRM
   Tot(5)       15        3     2021    480.2    424.3   1563.5   413.00    196.5    480.2      0.0    296.2      0.0    179.5       80    193.9    193.9      100     0.000     0.000     0.000     0.000       89        0        0        0        1        0        0    13.999       99     30.0    4.200     1.13       17        6     2021  1311_RCP45_net_15March_sandyloam.PRM
   Tot(6)       15        3     2022    206.6    533.7   1570.6   416.00    293.8    206.6      0.0     68.5      0.0    196.3       71    239.8    239.8      100     0.000     0.000     0.000     0.000       85        0        0        0        0        1        0    13.720       99     30.0    4.116     0.95       13        6     2022  1311_RCP45_net_15March_sandyloam.PRM
   Tot(7)       15        3     2023    277.1    499.2   1564.9   418.00    306.9    277.1      0.0    146.0      0.0    191.3       72    230.7    230.7      100     0.000     0.000     0.000     0.000       86        0        0        0        0        1        0    13.501       99     30.0    4.052     0.97       15        6     2023  1311_RCP45_net_15March_sandyloam.PRM
   Tot(8)       15        3     2024     89.6    588.3   1573.5   420.00    376.2     89.6      0.0      9.3      0.0    213.1       71    257.6    257.6      100     0.000     0.000     0.000     0.000       84        0        0        0        1        1        0    13.361       99     30.0    4.012     0.86       13        6     2024  1311_RCP45_net_15March_sandyloam.PRM
   Tot(9)       15        3     2025     26.4    695.9   1570.2   423.00    501.7     26.4      0.0      0.0      0.0    209.9       62    333.2    333.2      100     0.000     0.000     0.000     0.000       82        0        0        0        0        3        0    13.079       98     30.0    3.929     0.73       10        6     2025  1311_RCP45_net_15March_sandyloam.PRM
  Tot(10)       15        3     2026    177.7    542.5   1565.0   425.00    292.7    177.7      0.0     32.8      0.0    193.0       71    249.0    249.0      100     0.000     0.000     0.000     0.000       84        0        0        0        0        1        0    13.399       99     30.0    4.022     0.92       12        6     2026  1311_RCP45_net_15March_sandyloam.PRM
  Tot(11)       15        3     2027     48.1    620.3   1559.6   428.00    413.3     48.1      0.0      0.0      0.0    205.4       66    275.1    275.1      100     0.000     0.000     0.000     0.000       79        0        0        0        0        2        0    12.759       98     30.0    3.831     0.80        7        6     2027  1311_RCP45_net_15March_sandyloam.PRM
  Tot(12)       15        3     2028    223.5    525.9   1574.8   430.00    262.9    223.5      0.0     49.7      0.0    213.7       76    226.0    226.0      100     0.000     0.000     0.000     0.000       87        0        0        0        0        1        0    14.052       99     30.0    4.217     0.97       16        6     2028  1311_RCP45_net_15March_sandyloam.PRM
  Tot(13)       15        3     2029     47.0    578.1   1575.2   433.00    400.5     47.0      0.0      0.0      0.0    200.5       73    266.1    266.1      100     0.000     0.000     0.000     0.000       82        0        0        0        0        2        0    13.271       99     30.0    3.984     0.86       10        6     2029  1311_RCP45_net_15March_sandyloam.PRM
  Tot(14)       15        3     2030    145.1    527.1   1561.9   435.00    297.0    145.1      0.0      9.7      0.0    205.2       76    236.7    236.7      100     0.000     0.000     0.000     0.000       84        0        0        0        0        1        0    13.720       99     30.0    4.117     0.94       12        6     2030  1311_RCP45_net_15March_sandyloam.PRM
  Tot(15)       15        3     2031    104.7    568.2   1562.4   438.00    341.2    104.7      0.0      3.6      0.0    208.5       77    252.3    252.3      100     0.000     0.000     0.000     0.000       83        0        0        0        0        1        0    13.667       99     30.0    4.101     0.90       10        6     2031  1311_RCP45_net_15March_sandyloam.PRM
  Tot(16)       15        3     2032     65.1    566.5   1568.7   440.00    390.5     65.1      0.0      0.0      0.0    234.3       80    239.7    239.7      100     0.000     0.000     0.000     0.000       81        0        0        0        0        1        0    13.279       99     30.0    3.984     0.85       10        6     2032  1311_RCP45_net_15March_sandyloam.PRM
  Tot(17)       15        3     2033    354.1    553.7   1564.1   443.00    365.0    354.1      0.0    240.2      0.0    214.2       77    253.9    253.9      100     0.000     0.000     0.000     0.000       82        0        0        0        0        2        0    13.213       99     30.0    3.966     0.85       11        6     2033  1311_RCP45_net_15March_sandyloam.PRM
  Tot(18)       15        3     2034    252.9    485.3   1564.5   445.00    288.3    252.9      0.0    117.5      0.0    196.6       79    221.9    221.9      100     0.000     0.000     0.000     0.000       85        0        0        0        0        0        0    13.837       99     30.0    4.154     1.00       13        6     2034  1311_RCP45_net_15March_sandyloam.PRM
  Tot(19)       15        3     2035    143.6    531.0   1570.0   448.00    287.7    143.6      0.0     21.1      0.0    182.2       67    240.4    240.4      100     0.000     0.000     0.000     0.000       82        0        0        0        0        1        0    13.320       99     30.0    3.999     0.95       10        6     2035  1311_RCP45_net_15March_sandyloam.PRM
  Tot(20)       15        3     2036    194.1    535.8   1563.4   450.00    253.5    194.1      0.0     33.8      0.0    205.7       70    219.2    219.2      100     0.000     0.000     0.000     0.000       82        0        0        0        0        2        0    13.445       98     30.0    4.034     0.95       10        6     2036  1311_RCP45_net_15March_sandyloam.PRM
  Tot(21)       15        3     2037    131.3    518.3   1563.5   453.00    356.3    131.3      0.0     33.9      0.0    192.1       81    263.4    263.4      100     0.000     0.000     0.000     0.000       83        0        0        0        0        1        0    13.522       99     30.0    4.061     0.90       11        6     2037  1311_RCP45_net_15March_sandyloam.PRM
  Tot(22)       15        3     2038    206.3    543.7   1570.9   456.00    283.7    206.3      0.0     56.3      0.0    200.5       72    242.8    242.8      100     0.000     0.000     0.000     0.000       84        0        0        0        0        2        0    13.947       99     30.0    4.184     0.95       12        6     2038  1311_RCP45_net_15March_sandyloam.PRM
  Tot(23)       15        3     2039    179.6    475.2   1570.5   458.00    239.4    179.6      0.0     15.4      0.0    195.1       78    209.3    209.3      100     0.000     0.000     0.000     0.000       85        0        0        0        0        1        0    13.919       99     30.0    4.177     1.04       13        6     2039  1311_RCP45_net_15March_sandyloam.PRM
  Tot(24)       15        3     2040     84.2    540.8   1565.3   461.00    351.5     84.2      0.0     10.7      0.0    209.3       76    233.4    233.4      100     0.000     0.000     0.000     0.000       81        0        0        0        0        1        0    13.346       99     30.0    4.005     0.91        9        6     2040  1311_RCP45_net_15March_sandyloam.PRM
  Tot(25)       15        3     2041     34.1    639.0   1575.5   463.00    452.4     34.1      0.0      0.0      0.0    232.6       70    273.5    273.5      100     0.000     0.000     0.000     0.000       82        0        0        0        0        2        0    12.979       98     30.0    3.897     0.78       10        6     2041  1311_RCP45_net_15March_sandyloam.PRM
  Tot(26)       15        3     2042     88.5    556.5   1560.6   466.00    346.5     88.5      0.0      4.4      0.0    214.2       77    234.7    234.7      100     0.000     0.000     0.000     0.000       82        0        0        0        0        1        0    13.464       99     30.0    4.040     0.91       10        6     2042  1311_RCP45_net_15March_sandyloam.PRM
  Tot(27)       15        3     2043    186.0    579.3   1573.4   469.00    392.4    186.0      0.0     97.1      0.0    209.2       75    276.0    276.0      100     0.000     0.000     0.000     0.000       83        0        0        0        0        2        0    13.088       99     30.0    3.932     0.81       11        6     2043  1311_RCP45_net_15March_sandyloam.PRM
  Tot(28)       15        3     2044    214.6    548.5   1558.9   471.00    353.7    214.6      0.0     96.8      0.0    212.1       74    247.8    247.8      100     0.000     0.000     0.000     0.000       81        0        0        0        0        1        0    13.038       99     30.0    3.916     0.85        9        6     2044  1311_RCP45_net_15March_sandyloam.PRM
  Tot(29)       15        3     2045    433.7    451.7   1565.8   474.00    168.2    433.7      0.0    230.8      0.0    181.4       82    197.6    197.6      100     0.000     0.000     0.000     0.000       86        0        0        0        0        0        0    14.422       99     30.0    4.328     1.15       13        6     2045  1311_RCP45_net_15March_sandyloam.PRM
  Tot(30)       15        3     2046    294.2    520.1   1569.3   476.00    315.2    294.2      0.0    144.2      0.0    204.7       75    239.5    239.5      100     0.000     0.000     0.000     0.000       86        0        0        0        1        1        0    13.732       99     30.0    4.122     0.93       14        6     2046  1311_RCP45_net_15March_sandyloam.PRM
  Tot(31)       15        3     2047    345.4    488.8   1561.1   479.00    278.3    345.4      0.0    197.2      0.0    177.4       70    229.8    229.8      100     0.000     0.000     0.000     0.000       84        0        0        0        0        1        0    13.542       99     30.0    4.064     1.00       12        6     2047  1311_RCP45_net_15March_sandyloam.PRM
  Tot(32)       15        3     2048    124.0    536.5   1566.6   481.00    334.5    124.0      0.0     12.7      0.0    202.6       77    247.6    247.6      100     0.000     0.000     0.000     0.000       81        0        0        0        0        2        0    13.357       99     30.0    4.011     0.90        9        6     2048  1311_RCP45_net_15March_sandyloam.PRM
  Tot(33)       15        3     2049     52.1    578.0   1563.5   484.00    391.8     52.1      0.0      0.0      0.0    223.1       76    240.2    240.2      100     0.000     0.000     0.000     0.000       80        0        0        0        0        1        0    13.326       99     30.0    3.999     0.87        8        6     2049  1311_RCP45_net_15March_sandyloam.PRM
  Tot(34)       15        3     2050    251.4    498.5   1561.1   487.00    205.6    251.4      0.0     71.0      0.0    185.1       68    199.3    199.3      100     0.000     0.000     0.000     0.000       83        0        0        0        0        1        0    13.882       99     30.0    4.165     1.09       10        6     2050  1311_RCP45_net_15March_sandyloam.PRM
  Tot(35)       15        3     2051    125.2    595.9   1564.2   489.00    380.5    125.2      0.0     33.8      0.0    202.0       69    275.5    275.5      100     0.000     0.000     0.000     0.000       80        0        0        0        0        2        0    13.070       99     30.0    3.926     0.83        8        6     2051  1311_RCP45_net_15March_sandyloam.PRM
  Tot(36)       15        3     2052    120.1    567.3   1557.1   492.00    395.0    120.1      0.0     51.0      0.0    213.3       79    265.7    265.7      100     0.000     0.000     0.000     0.000       81        0        0        0        0        1        0    13.075       99     30.0    3.925     0.82        8        6     2052  1311_RCP45_net_15March_sandyloam.PRM
  Tot(37)       15        3     2053    321.9    534.5   1564.9   494.00    332.1    321.9      0.0    223.9      0.0    183.5       66    248.3    248.3      100     0.000     0.000     0.000     0.000       83        0        0        0        0        2        0    13.490       99     30.0    4.051     0.95       11        6     2053  1311_RCP45_net_15March_sandyloam.PRM
  Tot(38)       15        3     2054    114.2    563.5   1558.0   496.00    370.6    114.2      0.0     42.3      0.0    216.4       77    244.2    244.2      100     0.000     0.000     0.000     0.000       78        0        0        0        0        1        0    13.180       99     30.0    3.957     0.87        6        6     2054  1311_RCP45_net_15March_sandyloam.PRM
  Tot(39)       15        3     2055    238.5    524.2   1559.0   498.00    271.2    238.5      0.0     58.2      0.0    204.2       76    234.6    234.6      100     0.000     0.000     0.000     0.000       82        0        0        0        0        1        0    13.720       99     30.0    4.116     0.94       10        6     2055  1311_RCP45_net_15March_sandyloam.PRM
  Tot(40)       15        3     2056    151.9    520.5   1567.4   501.00    290.2    151.9      0.0     36.6      0.0    182.0       73    238.3    238.3      100     0.000     0.000     0.000     0.000       81        0        0        0        0        1        0    13.697       99     30.0    4.112     0.98        8        6     2056  1311_RCP45_net_15March_sandyloam.PRM
  Tot(41)       15        3     2057     87.9    581.4   1570.5   503.00    415.5     87.9      0.0     30.6      0.0    230.0       77    262.2    262.2      100     0.000     0.000     0.000     0.000       80        0        0        0        0        2        0    13.064       98     30.0    3.921     0.80        8        6     2057  1311_RCP45_net_15March_sandyloam.PRM
  Tot(42)       15        3     2058    294.3    494.3   1567.7   505.00    261.2    294.3      0.0    121.4      0.0    177.1       70    232.2    232.2      100     0.000     0.000     0.000     0.000       83        0        0        0        0        1        0    13.687       99     30.0    4.109     1.01       12        6     2058  1311_RCP45_net_15March_sandyloam.PRM
  Tot(43)       15        3     2059    596.6    492.1   1575.3   507.00    234.0    596.6      0.0    420.6      0.0    189.4       72    207.8    207.8      100     0.000     0.000     0.000     0.000       85        0        0        0        0        1        0    14.281       99     30.0    4.287     1.09       13        6     2059  1311_RCP45_net_15March_sandyloam.PRM
  Tot(44)       15        3     2060    125.0    516.0   1569.3   509.00    291.4    125.0      0.0      9.6      0.0    181.5       71    233.3    233.3      100     0.000     0.000     0.000     0.000       79        0        0        0        0        2        0    13.210       99     30.0    3.965     0.96        7        6     2060  1311_RCP45_net_15March_sandyloam.PRM
  Tot(45)       15        3     2061    175.2    539.9   1574.4   511.00    345.0    175.2      0.0     85.7      0.0    211.6       81    241.8    241.8      100     0.000     0.000     0.000     0.000       82        0        0        0        0        1        0    13.465       99     30.0    4.042     0.90       10        6     2061  1311_RCP45_net_15March_sandyloam.PRM
  Tot(46)       15        3     2062    118.3    576.4   1570.1   513.00    391.3    118.3      0.0     31.0      0.0    212.5       73    261.5    261.5      100     0.000     0.000     0.000     0.000       81        0        0        0        0        2        0    13.262       99     30.0    3.981     0.85        9        6     2062  1311_RCP45_net_15March_sandyloam.PRM
  Tot(47)       15        3     2063    184.8    554.5   1568.0   514.00    379.9    184.8      0.0     44.7      0.0    206.2       79    259.2    259.2      100     0.000     0.000     0.000     0.000       80        0        0        0        0        2        0    13.113       99     30.0    3.936     0.85        7        6     2063  1311_RCP45_net_15March_sandyloam.PRM
  Tot(48)       15        3     2064    222.8    542.5   1569.6   516.00    262.4    222.8      0.0     70.1      0.0    187.9       66    233.9    233.9      100     0.000     0.000     0.000     0.000       85        0        0        0        0        1        0    13.702       99     30.0    4.112     0.98       13        6     2064  1311_RCP45_net_15March_sandyloam.PRM
  Tot(49)       15        3     2065     94.6    582.6   1564.3   518.00    377.3     94.6      0.0     19.8      0.0    223.8       77    246.4    246.4      100     0.000     0.000     0.000     0.000       79        0        0        0        0        2        0    13.156       99     30.0    3.947     0.85        7        6     2065  1311_RCP45_net_15March_sandyloam.PRM
  Tot(50)       15        3     2066    295.3    529.3   1569.0   519.00    294.3    295.3      0.0    161.2      0.0    200.6       71    220.8    220.8      100     0.000     0.000     0.000     0.000       82        0        0        0        0        1        0    13.438       98     30.0    4.034     0.96        9        6     2066  1311_RCP45_net_15March_sandyloam.PRM
  Tot(51)       15        3     2067    171.3    533.8   1558.7   520.00    293.7    171.3      0.0     65.5      0.0    204.0       72    215.6    215.6      100     0.000     0.000     0.000     0.000       81        0        0        0        0        2        0    13.588       99     30.0    4.076     0.98        9        6     2067  1311_RCP45_net_15March_sandyloam.PRM
  Tot(52)       15        3     2068    172.9    549.8   1575.3   522.00    330.9    172.9      0.0     75.7      0.0    180.4       69    255.5    255.5      100     0.000     0.000     0.000     0.000       82        0        0        0        0        1        0    13.311       99     27.8    3.702     0.86        9        6     2068  1311_RCP45_net_15March_sandyloam.PRM
  Tot(53)       15        3     2069    251.5    510.0   1570.5   523.00    252.2    251.5      0.0     98.8      0.0    186.5       70    212.7    212.7      100     0.000     0.000     0.000     0.000       82        0        0        0        0        1        0    13.904       99     30.0    4.173     1.05       10        6     2069  1311_RCP45_net_15March_sandyloam.PRM
  Tot(54)       15        3     2070    422.9    460.7   1560.5   524.00    198.9    422.9      0.0    178.6      0.0    187.9       82    209.4    209.4      100     0.000     0.000     0.000     0.000       85        0        0        0        0        0        0    14.103       99     30.0    4.232     1.07       13        6     2070  1311_RCP45_net_15March_sandyloam.PRM
  Tot(55)       15        3     2071    215.4    544.3   1566.2   525.00    384.0    215.4      0.0    120.9      0.0    237.7       85    247.3    247.3      100     0.000     0.000     0.000     0.000       81        0        0        0        0        2        0    13.208       98     30.0    3.964     0.82        8        6     2071  1311_RCP45_net_15March_sandyloam.PRM
  Tot(56)       15        3     2072    209.5    551.5   1573.6   527.00    302.9    209.5      0.0     67.1      0.0    199.8       68    239.1    239.1      100     0.000     0.000     0.000     0.000       82        0        0        0        0        2        0    13.344       98     30.0    4.005     0.91        9        6     2072  1311_RCP45_net_15March_sandyloam.PRM
  Tot(57)       15        3     2073    172.6    552.6   1565.2   527.00    397.7    172.6      0.0    100.1      0.0    206.9       78    264.1    264.1      100     0.000     0.000     0.000     0.000       80        0        0        0        0        1        0    13.078       99     30.0    3.927     0.84        8        6     2073  1311_RCP45_net_15March_sandyloam.PRM
  Tot(58)       15        3     2074    565.6    418.2   1561.8   528.00    135.8    565.6      0.0    358.6      0.0    163.7       69    179.3    179.3      100     0.000     0.000     0.000     0.000       86        0        0        0        0        0        0    14.352       99     30.0    4.307     1.26       14        6     2074  1311_RCP45_net_15March_sandyloam.PRM
  Tot(59)       15        3     2075    491.8    497.7   1558.7   529.00    217.7    491.8      0.0    337.0      0.0    192.9       68    185.5    185.5      100     0.000     0.000     0.000     0.000       83        0        0        0        0        1        0    14.031       98     30.0    4.209     1.13       11        6     2075  1311_RCP45_net_15March_sandyloam.PRM
  Tot(60)       15        3     2076    277.8    495.6   1564.7   530.00    297.5    277.8      0.0    114.1      0.0    194.6       79    232.5    232.5      100     0.000     0.000     0.000     0.000       81        0        0        0        0        2        0    13.410       99     30.0    4.025     0.94        8        6     2076  1311_RCP45_net_15March_sandyloam.PRM
  Tot(61)       15        3     2077    282.4    510.6   1558.1   530.00    233.6    282.4      0.0    133.2      0.0    168.7       59    214.0    214.0      100     0.000     0.000     0.000     0.000       80        0        0        0        0        2        0    13.334       98     30.0    4.000     1.05        8        6     2077  1311_RCP45_net_15March_sandyloam.PRM
  Tot(62)       15        3     2078     90.1    558.8   1561.6   531.00    355.7     90.1      0.0      0.3      0.0    213.8       74    240.8    240.8      100     0.000     0.000     0.000     0.000       79        0        0        0        0        2        0    12.954       98     30.0    3.889     0.86        6        6     2078  1311_RCP45_net_15March_sandyloam.PRM
  Tot(63)       15        3     2079    204.2    518.2   1568.3   531.00    305.8    204.2      0.0     75.5      0.0    200.4       81    234.4    234.4      100     0.000     0.000     0.000     0.000       80        0        0        0        0        0        0    13.391       99     30.0    4.021     0.93        8        6     2079  1311_RCP45_net_15March_sandyloam.PRM
  Tot(64)       15        3     2080    145.6    552.4   1571.1   531.00    309.0    145.6      0.0     52.0      0.0    200.7       69    220.5    220.5      100     0.000     0.000     0.000     0.000       79        0        0        0        0        1        0    13.338       99     30.0    4.002     0.96        7        6     2080  1311_RCP45_net_15March_sandyloam.PRM
  Tot(65)       15        3     2081    212.0    566.5   1566.8   531.00    351.9    212.0      0.0     85.9      0.0    195.0       66    251.3    251.3      100     0.000     0.000     0.000     0.000       79        0        0        0        0        2        0    12.799       98     30.0    3.842     0.86        6        6     2081  1311_RCP45_net_15March_sandyloam.PRM
  Tot(66)       15        3     2082    183.0    541.3   1572.8   531.00    297.8    183.0      0.0     62.0      0.0    196.1       71    218.8    218.8      100     0.000     0.000     0.000     0.000       80        0        0        0        0        1        0    13.557       99     30.0    4.068     0.98        7        6     2082  1311_RCP45_net_15March_sandyloam.PRM
  Tot(67)       15        3     2083     37.4    597.5   1557.8   532.00    424.9     37.4      0.0      0.0      0.0    217.4       74    260.5    260.5      100     0.000     0.000     0.000     0.000       76        0        0        0        0        2        0    12.560       98     30.0    3.773     0.80        3        6     2083  1311_RCP45_net_15March_sandyloam.PRM
  Tot(68)       15        3     2084    241.2    551.3   1564.2   532.00    355.3    241.2      0.0    173.0      0.0    175.5       59    246.6    246.6      100     0.000     0.000     0.000     0.000       79        0        0        0        0        2        0    12.697       98     15.1    1.921     0.46        7        6     2084  1311_RCP45_net_15March_sandyloam.PRM
  Tot(69)       15        3     2085    210.9    552.5   1565.0   532.00    349.6    210.9      0.0    111.0      0.0    217.1       74    235.4    235.4      100     0.000     0.000     0.000     0.000       78        0        0        0        0        2        0    12.864       98     30.0    3.861     0.86        6        6     2085  1311_RCP45_net_15March_sandyloam.PRM
  Tot(70)       15        3     2086    191.4    564.1   1559.0   532.00    402.5    191.4      0.0    126.7      0.0    212.5       73    245.1    245.1      100     0.000     0.000     0.000     0.000       77        0        0        0        0        2        0    12.437       98     30.0    3.733     0.82        4        6     2086  1311_RCP45_net_15March_sandyloam.PRM
  Tot(71)       15        3     2087    149.3    513.2   1563.7   533.00    300.7    149.3      0.0     29.4      0.0    203.1       77    225.9    225.9      100     0.000     0.000     0.000     0.000       80        0        0        0        0        1        0    13.114       99     30.0    3.938     0.92        7        6     2087  1311_RCP45_net_15March_sandyloam.PRM
  Tot(72)       15        3     2088    147.9    582.5   1574.2   533.00    429.1    147.9      0.0     83.8      0.0    210.2       73    274.2    274.2      100     0.000     0.000     0.000     0.000       79        0        0        0        0        3        0    12.390       98     30.0    3.720     0.77        6        6     2088  1311_RCP45_net_15March_sandyloam.PRM
  Tot(73)       15        3     2089     91.3    552.6   1573.2   533.00    335.8     91.3      0.0      4.1      0.0    210.2       75    230.7    230.7      100     0.000     0.000     0.000     0.000       78        0        0        0        0        1        0    12.963       99     30.0    3.891     0.89        5        6     2089  1311_RCP45_net_15March_sandyloam.PRM
  Tot(74)       15        3     2090    384.5    483.3   1564.1   534.00    289.6    384.5      0.0    243.7      0.0    181.2       67    210.0    210.0      100     0.000     0.000     0.000     0.000       82        0        0        0        0        1        0    13.373       98     30.0    4.015     1.03        9        6     2090  1311_RCP45_net_15March_sandyloam.PRM
  Tot(75)       15        3     2091    214.5    558.2   1570.2   534.00    402.5    214.5      0.0    166.4      0.0    194.6       68    254.8    254.8      100     0.000     0.000     0.000     0.000       79        0        0        0        0        2        0    12.472       99     25.9    3.226     0.72        7        6     2091  1311_RCP45_net_15March_sandyloam.PRM
  Tot(76)       15        3     2092    602.2    411.8   1559.5   535.00    165.4    602.2      0.0    397.3      0.0    185.9       78    174.7    174.7      100     0.000     0.000     0.000     0.000       84        0        0        0        0        1        0    14.061       99     30.0    4.219     1.17       12        6     2092  1311_RCP45_net_15March_sandyloam.PRM
  Tot(77)       15        3     2093    139.0    576.0   1564.6   535.00    329.5    139.0      0.0     27.2      0.0    206.0       70    243.5    243.5      100     0.000     0.000     0.000     0.000       77        0        0        0        0        2        0    12.947       98     26.9    3.480     0.78        5        6     2093  1311_RCP45_net_15March_sandyloam.PRM
  Tot(78)       15        3     2094    295.5    496.3   1561.6   535.00    256.5    295.5      0.0    139.0      0.0    189.6       74    216.6    216.6      100     0.000     0.000     0.000     0.000       80        0        0        0        0        1        0    13.355       99     30.0    4.006     0.99        7        6     2094  1311_RCP45_net_15March_sandyloam.PRM
  Tot(79)       15        3     2095     62.2    561.6   1559.5   536.00    369.9     62.2      0.0      0.0      0.0    204.5       74    246.5    246.5      100     0.000     0.000     0.000     0.000       77        0        0        0        0        1        0    12.699       99     26.8    3.399     0.76        5        6     2095  1311_RCP45_net_15March_sandyloam.PRM
  Tot(80)       15        3     2096    176.7    557.2   1575.1   536.00    313.0    176.7      0.0     83.0      0.0    180.4       63    241.0    241.0      100     0.000     0.000     0.000     0.000       77        0        0        0        0        2        0    12.612       99     19.0    2.397     0.57        5        6     2096  1311_RCP45_net_15March_sandyloam.PRM
  Tot(81)       15        3     2097    195.1    565.7   1565.8   537.00    369.1    195.1      0.0     49.2      0.0    230.9       80    244.0    244.0      100     0.000     0.000     0.000     0.000       79        0        0        0        0        1        0    12.837       99     30.0    3.852     0.81        6        6     2097  1311_RCP45_net_15March_sandyloam.PRM
  Tot(82)       15        3     2098    119.1    579.6   1560.0   537.00    375.2    119.1      0.0     16.9      0.0    221.8       75    251.0    251.0      100     0.000     0.000     0.000     0.000       77        0        0        0        0        3        0    12.853       98     30.0    3.857     0.82        4        6     2098  1311_RCP45_net_15March_sandyloam.PRM
  Tot(83)       15        3     2099    225.1    528.6   1569.3   538.00    252.5    225.1      0.0     60.9      0.0    190.3       71    224.6    224.6      100     0.000     0.000     0.000     0.000       79        0        0        0        0        1        0    13.290       99     30.0    3.988     0.96        6        6     2099  1311_RCP45_net_15March_sandyloam.PRM
