AquaCrop 6.0 (March 2017) - Output created on (date) : 07/06/2021   at (time) : 20:21:46

    RunNr     Day1   Month1    Year1     Rain      ETo       GD     CO2      Irri   Infilt   Runoff    Drain   Upflow        E     E/Ex       Tr      TrW   Tr/Trx    SaltIn   SaltOut    SaltUp  SaltProf     Cycle   SaltStr  FertStr  WeedStr  TempStr   ExpStr   StoStr  BioMass  Brelative   HI     Yield     WPet     DayN   MonthN    YearN
                                           mm       mm    °C.day    ppm        mm       mm       mm       mm       mm       mm        %       mm       mm        %    ton/ha    ton/ha    ton/ha    ton/ha      days       %        %        %        %        %        %    ton/ha        %       %    ton/ha    kg/m3
   Tot(1)       15        4     2017    558.6    542.5   1565.7   404.00      0.0    558.6      0.0    386.1      0.0     81.0       16     37.7     37.7       79     0.000     0.000     0.000     0.000       61        0        0        0        0       57       19     1.927       15     11.2    0.215     0.25        7        7     2017  1311_RCP45_rainfed_15April_sandy.PRM
   Tot(2)       15        4     2018    664.0    467.0   1564.2   407.00      0.0    664.0      0.0    437.4      0.0    107.9       31    114.8    114.8       89     0.000     0.000     0.000     0.000       83        0        0        0        0       33        8     7.460       55     30.0    2.238     1.02       11        7     2018  1311_RCP45_rainfed_15April_sandy.PRM
   Tot(3)       15        4     2019    124.3    596.8   1570.5   409.00      0.0    124.3      0.0      0.0      0.0     61.8       11     36.6     36.6       83     0.000     0.000     0.000     0.000       62        0        0        0        0       61       16     1.693       14     14.3    0.241     0.28        4        7     2019  1311_RCP45_rainfed_15April_sandy.PRM
   Tot(4)       15        4     2020    418.4    509.9   1565.0   411.00      0.0    418.4      0.0    209.5      0.0    153.1       31     48.2     48.2       95     0.000     0.000     0.000     0.000       81        0        0        0        0       54        3     2.941       22     30.2    0.890     0.45        9        7     2020  1311_RCP45_rainfed_15April_sandy.PRM
   Tot(5)       15        4     2021   1107.6    323.4   1561.1   413.00      0.0   1107.6      0.0    873.6      0.0    112.8       54    117.9    117.9       97     0.000     0.000     0.000     0.000       90        0        0        0        1       12        1    13.610       91     30.0    4.083     1.79       19        7     2021  1311_RCP45_rainfed_15April_sandy.PRM
   Tot(6)       15        4     2022   1023.2    415.4   1561.3   416.00      0.0   1023.2      0.0    742.8      0.0    110.9       42    145.4    145.4       89     0.000     0.000     0.000     0.000       86        0        0        0        1       20        4    11.043       79     30.2    3.338     1.31       14        7     2022  1311_RCP45_rainfed_15April_sandy.PRM
   Tot(7)       15        4     2023    869.3    387.0   1561.8   418.00      0.0    869.3      0.0    542.9      0.0    114.2       38     99.0     99.0       99     0.000     0.000     0.000     0.000       86        0        0        0        1       28        0    10.006       69     30.0    3.002     1.41       14        7     2023  1311_RCP45_rainfed_15April_sandy.PRM
   Tot(8)       15        4     2024    358.2    492.2   1563.8   420.00      0.0    358.2      0.0    126.3      0.0    113.2       27     69.1     69.1       76     0.000     0.000     0.000     0.000       82        0        0        0        0       48       14     3.759       28     29.8    1.121     0.62       10        7     2024  1311_RCP45_rainfed_15April_sandy.PRM
   Tot(9)       15        4     2025    199.5    597.3   1567.2   423.00      0.0    199.5      0.0     41.1      0.0    124.1       20     30.7     30.7       99     0.000     0.000     0.000     0.000       80        0        0        0        0       64        1     1.468       11     18.4    0.270     0.18        8        7     2025  1311_RCP45_rainfed_15April_sandy.PRM
  Tot(10)       15        4     2026    542.7    486.6   1571.2   425.00      0.0    542.7      0.0    224.7      0.0    106.8       34    155.1    155.1       89     0.000     0.000     0.000     0.000       81        0        0        0        0       16        5     9.897       74     29.7    2.936     1.12        9        7     2026  1311_RCP45_rainfed_15April_sandy.PRM
  Tot(11)       15        4     2027    257.6    560.2   1567.9   428.00      0.0    257.6      0.0     88.4      0.0    111.6       22     47.4     47.4       72     0.000     0.000     0.000     0.000       55        0        0        0        0       54       23     2.231       18      8.9    0.199     0.19        4        7     2027  1311_RCP45_rainfed_15April_sandy.PRM
  Tot(12)       15        4     2028    963.9    415.3   1568.8   430.00      0.0    963.9      0.0    509.9      0.0    115.9       45    155.1    155.1       93     0.000     0.000     0.000     0.000       85        0        0        0        0       14        3    11.695       84     30.0    3.514     1.30       14        7     2028  1311_RCP45_rainfed_15April_sandy.PRM
  Tot(13)       15        4     2029     98.6    581.1   1570.6   433.00      0.0     98.6      0.0      0.0      0.0    101.0       19     46.2     46.2       80     0.000     0.000     0.000     0.000       77        0        0        0        0       56       14     2.397       19     30.5    0.731     0.51        5        7     2029  1311_RCP45_rainfed_15April_sandy.PRM
  Tot(14)       15        4     2030   1089.4    416.0   1563.8   435.00      0.0   1089.4      0.0    771.7      0.0    114.2       41    130.7    130.7       90     0.000     0.000     0.000     0.000       85        0        0        0        0       24        4    10.032       72     30.6    3.070     1.26       13        7     2030  1311_RCP45_rainfed_15April_sandy.PRM
  Tot(15)       15        4     2031    363.7    561.2   1557.9   438.00      0.0    363.7      0.0    143.9      0.0    135.4       29     55.0     55.0       70     0.000     0.000     0.000     0.000       56        0        0        0        0       48       24     2.740       22      7.8    0.213     0.16        6        7     2031  1311_RCP45_rainfed_15April_sandy.PRM
  Tot(16)       15        4     2032    315.9    511.1   1562.4   440.00      0.0    315.9      0.0    103.0      0.0    149.6       32     42.0     42.0       74     0.000     0.000     0.000     0.000       59        0        0        0        0       53       21     2.281       18     11.1    0.253     0.21        6        7     2032  1311_RCP45_rainfed_15April_sandy.PRM
  Tot(17)       15        4     2033    628.6    449.2   1568.8   443.00      0.0    628.6      0.0    405.9      0.0     99.3       30    113.4    113.4       87     0.000     0.000     0.000     0.000       82        0        0        0        0       34        5     8.462       63     30.0    2.539     1.20       10        7     2033  1311_RCP45_rainfed_15April_sandy.PRM
  Tot(18)       15        4     2034    801.8    360.0   1558.1   445.00      0.0    801.8      0.0    513.5      0.0    115.8       44     99.8     99.8       95     0.000     0.000     0.000     0.000       88        0        0        0        1       26        2    10.783       73     30.0    3.235     1.50       16        7     2034  1311_RCP45_rainfed_15April_sandy.PRM
  Tot(19)       15        4     2035    200.1    511.2   1567.3   448.00      0.0    200.1      0.0      1.0      0.0    122.2       35    101.5    101.5       68     0.000     0.000     0.000     0.000       78        0        0        0        0       36       18     6.118       47     28.7    1.756     0.79        6        7     2035  1311_RCP45_rainfed_15April_sandy.PRM
  Tot(20)       15        4     2036    847.0    393.2   1571.0   450.00      0.0    847.0      0.0    596.8      0.0    121.7       48    130.0    130.0       91     0.000     0.000     0.000     0.000       84        0        0        0        0       17        3    11.058       80     30.7    3.398     1.37       12        7     2036  1311_RCP45_rainfed_15April_sandy.PRM
  Tot(21)       15        4     2037    511.9    454.9   1569.9   453.00      0.0    511.9      0.0    318.2      0.0    111.0       26     56.9     56.9       92     0.000     0.000     0.000     0.000       83        0        0        0        0       50        5     3.885       29     30.2    1.173     0.70       11        7     2037  1311_RCP45_rainfed_15April_sandy.PRM
  Tot(22)       15        4     2038   1099.9    447.0   1562.1   456.00      0.0   1099.9      0.0    848.0      0.0    106.6       37    139.8    139.8       84     0.000     0.000     0.000     0.000       84        0        0        0        0       14        7     9.809       72     29.7    2.913     1.19       12        7     2038  1311_RCP45_rainfed_15April_sandy.PRM
  Tot(23)       15        4     2039    541.0    377.1   1560.3   458.00      0.0    541.0      0.0    246.4      0.0    101.6       42    141.6    141.6      100     0.000     0.000     0.000     0.000       83        0        0        0        0       11        0    12.532       90     30.3    3.792     1.56       11        7     2039  1311_RCP45_rainfed_15April_sandy.PRM
  Tot(24)       15        4     2040    617.3    431.9   1559.2   461.00      0.0    617.3      0.0    339.3      0.0    110.8       33     65.9     65.9       71     0.000     0.000     0.000     0.000       80        0        0        0        0       43       15     3.772       28     23.0    0.869     0.49        8        7     2040  1311_RCP45_rainfed_15April_sandy.PRM
  Tot(25)       15        4     2041    139.4    581.7   1563.1   463.00      0.0    139.4      0.0      4.1      0.0     87.5       16     41.3     41.3       78     0.000     0.000     0.000     0.000       77        0        0        0        0       57       13     2.072       16     18.2    0.376     0.30        5        7     2041  1311_RCP45_rainfed_15April_sandy.PRM
  Tot(26)       15        4     2042    210.5    501.0   1563.8   466.00      0.0    210.5      0.0     22.2      0.0     96.8       23     50.9     50.9       70     0.000     0.000     0.000     0.000       53        0        0        0        0       48       25     2.580       21      4.9    0.128     0.11        5        7     2042  1311_RCP45_rainfed_15April_sandy.PRM
  Tot(27)       15        4     2043    490.7    497.9   1562.3   469.00      0.0    490.7      0.0    260.1      0.0    130.9       30     83.0     83.0       99     0.000     0.000     0.000     0.000       80        0        0        0        0       44        1     5.846       43     30.2    1.766     0.83        8        7     2043  1311_RCP45_rainfed_15April_sandy.PRM
  Tot(28)       15        4     2044    885.5    407.1   1566.2   471.00      0.0    885.5      0.0    655.1      0.0    137.5       39     66.1     66.1       93     0.000     0.000     0.000     0.000       81        0        0        0        0       45        4     5.843       43     30.1    1.760     0.87        9        7     2044  1311_RCP45_rainfed_15April_sandy.PRM
  Tot(29)       15        4     2045    883.4    373.6   1564.0   474.00      0.0    883.4      0.0    606.8      0.0    138.4       61    118.1    118.1       82     0.000     0.000     0.000     0.000       85        0        0        0        0       32        7     9.872       70     30.2    2.978     1.17       14        7     2045  1311_RCP45_rainfed_15April_sandy.PRM
  Tot(30)       15        4     2046    957.9    378.9   1561.6   476.00      0.0    957.9      0.0    746.1      0.0    114.9       40     88.3     88.3       84     0.000     0.000     0.000     0.000       86        0        0        0        0       30        6     9.684       68     30.1    2.910     1.44       14        7     2046  1311_RCP45_rainfed_15April_sandy.PRM
  Tot(31)       15        4     2047    743.9    366.2   1558.9   479.00      0.0    743.9      0.0    523.3      0.0    121.3       46     99.2     99.2       93     0.000     0.000     0.000     0.000       85        0        0        0        0       21        3    11.421       79     30.0    3.426     1.57       13        7     2047  1311_RCP45_rainfed_15April_sandy.PRM
  Tot(32)       15        4     2048    451.0    431.7   1566.8   481.00      0.0    451.0      0.0    233.2      0.0    111.7       31     74.8     74.8       90     0.000     0.000     0.000     0.000       82        0        0        0        0       42        3     6.816       49     30.7    2.091     1.13       10        7     2048  1311_RCP45_rainfed_15April_sandy.PRM
  Tot(33)       15        4     2049    396.6    515.8   1558.5   484.00      0.0    396.6      0.0    244.9      0.0    104.6       22     38.3     38.3       74     0.000     0.000     0.000     0.000       57        0        0        0        0       54       22     2.074       16      9.1    0.189     0.17        5        7     2049  1311_RCP45_rainfed_15April_sandy.PRM
  Tot(34)       15        4     2050    911.6    355.2   1571.0   487.00      0.0    911.6      0.0    583.7      0.0    128.9       63    142.8    142.8       94     0.000     0.000     0.000     0.000       85        0        0        0        0       20        3    12.183       86     30.4    3.700     1.37       14        7     2050  1311_RCP45_rainfed_15April_sandy.PRM
  Tot(35)       15        4     2051    587.1    490.5   1562.4   489.00      0.0    587.1      0.0    375.2      0.0    105.6       26     89.4     89.4       83     0.000     0.000     0.000     0.000       79        0        0        0        0       44        7     5.877       45     30.4    1.784     0.92        7        7     2051  1311_RCP45_rainfed_15April_sandy.PRM
  Tot(36)       15        4     2052    637.7    486.7   1567.0   492.00      0.0    637.7      0.0    434.2      0.0     96.7       21     41.5     41.5       84     0.000     0.000     0.000     0.000       79        0        0        0        0       57        9     2.267       18     30.6    0.694     0.51        7        7     2052  1311_RCP45_rainfed_15April_sandy.PRM
  Tot(37)       15        4     2053    765.7    429.8   1565.7   494.00      0.0    765.7      0.0    535.0      0.0    100.1       30    110.5    110.5      100     0.000     0.000     0.000     0.000       82        0        0        0        0       23        0     9.707       70     30.0    2.912     1.39       10        7     2053  1311_RCP45_rainfed_15April_sandy.PRM
  Tot(38)       15        4     2054    862.4    446.5   1567.5   496.00      0.0    862.4      0.0    670.3      0.0    135.3       34     43.9     43.9       78     0.000     0.000     0.000     0.000       80        0        0        0        0       54       10     2.404       18     30.5    0.732     0.41        8        7     2054  1311_RCP45_rainfed_15April_sandy.PRM
  Tot(39)       15        4     2055    496.7    469.3   1572.6   498.00      0.0    496.7      0.0    190.3      0.0    118.6       39    152.9    152.9       97     0.000     0.000     0.000     0.000       81        0        0        0        0       25        1    10.804       79     30.5    3.295     1.22        9        7     2055  1311_RCP45_rainfed_15April_sandy.PRM
  Tot(40)       15        4     2056    974.4    436.0   1568.8   501.00      0.0    974.4      0.0    745.6      0.0     98.6       32    125.3    125.3       93     0.000     0.000     0.000     0.000       82        0        0        0        0       30        2     9.357       69     30.7    2.875     1.29       10        7     2056  1311_RCP45_rainfed_15April_sandy.PRM
  Tot(41)       15        4     2057    826.4    441.0   1558.8   503.00      0.0    826.4      0.0    650.6      0.0     93.5       24     59.2     59.2       83     0.000     0.000     0.000     0.000       81        0        0        0        0       50        9     3.890       29     30.7    1.196     0.79        9        7     2057  1311_RCP45_rainfed_15April_sandy.PRM
  Tot(42)       15        4     2058    822.2    378.2   1557.5   505.00      0.0    822.2      0.0    593.0      0.0    108.0       39    108.9    108.9      100     0.000     0.000     0.000     0.000       86        0        0        0        0       16        0    12.214       84     30.0    3.664     1.69       13        7     2058  1311_RCP45_rainfed_15April_sandy.PRM
  Tot(43)       15        4     2059   1523.1    349.1   1567.6   507.00      0.0   1523.1      0.0   1237.5      0.0    111.8       51    139.6    139.6      100     0.000     0.000     0.000     0.000       88        0        0        0        1        7        1    13.426       93     30.1    4.037     1.61       16        7     2059  1311_RCP45_rainfed_15April_sandy.PRM
  Tot(44)       15        4     2060   1141.7    407.6   1573.9   509.00      0.0   1141.7      0.0    942.1      0.0     94.9       30     89.3     89.3       86     0.000     0.000     0.000     0.000       81        0        0        0        0       37        4     7.698       57     30.3    2.331     1.27        9        7     2060  1311_RCP45_rainfed_15April_sandy.PRM
  Tot(45)       15        4     2061    519.8    461.9   1570.7   511.00      0.0    519.8      0.0    343.2      0.0    107.2       29     65.6     65.6       73     0.000     0.000     0.000     0.000       80        0        0        0        0       45       15     3.490       27     20.8    0.726     0.43        8        7     2061  1311_RCP45_rainfed_15April_sandy.PRM
  Tot(46)       15        4     2062    703.8    440.3   1565.0   513.00      0.0    703.8      0.0    506.5      0.0    109.4       28     66.7     66.7       94     0.000     0.000     0.000     0.000       81        0        0        0        0       45        3     5.491       41     30.1    1.651     0.94        9        7     2062  1311_RCP45_rainfed_15April_sandy.PRM
  Tot(47)       15        4     2063    700.8    438.5   1570.8   514.00      0.0    700.8      0.0    521.0      0.0     99.6       24     52.0     52.0       91     0.000     0.000     0.000     0.000       81        0        0        0        0       50        3     4.561       33     30.1    1.373     0.91        9        7     2063  1311_RCP45_rainfed_15April_sandy.PRM
  Tot(48)       15        4     2064   1119.6    420.4   1562.0   516.00      0.0   1119.6      0.0    863.8      0.0    105.0       37    139.3    139.3       95     0.000     0.000     0.000     0.000       83        0        0        0        0       21        2    10.881       79     30.0    3.267     1.34       11        7     2064  1311_RCP45_rainfed_15April_sandy.PRM
  Tot(49)       15        4     2065    445.1    530.3   1559.8   518.00      0.0    445.1      0.0    267.8      0.0     94.9       22     58.6     58.6       70     0.000     0.000     0.000     0.000       56        0        0        0        0       46       24     3.005       24      1.9    0.057     0.04        4        7     2065  1311_RCP45_rainfed_15April_sandy.PRM
  Tot(50)       15        4     2066    992.0    362.5   1568.6   519.00      0.0    992.0      0.0    745.1      0.0    144.0       48     55.8     55.8       83     0.000     0.000     0.000     0.000       84        0        0        0        0       41        9     5.216       37     30.0    1.565     0.79       12        7     2066  1311_RCP45_rainfed_15April_sandy.PRM
  Tot(51)       15        4     2067   1353.7    423.6   1569.2   520.00      0.0   1353.7      0.0   1090.7      0.0    100.0       37    117.1    117.1       81     0.000     0.000     0.000     0.000       82        0        0        0        0       27        7     8.475       62     23.7    2.012     0.93       10        7     2067  1311_RCP45_rainfed_15April_sandy.PRM
  Tot(52)       15        4     2068    573.9    448.3   1571.0   522.00      0.0    573.9      0.0    318.7      0.0     92.1       25     97.1     97.1       98     0.000     0.000     0.000     0.000       81        0        0        0        0       40        1     7.262       54     30.6    2.226     1.18        9        7     2068  1311_RCP45_rainfed_15April_sandy.PRM
  Tot(53)       15        4     2069   1047.7    362.3   1557.5   523.00      0.0   1047.7      0.0    836.9      0.0     91.6       35    111.0    111.0       95     0.000     0.000     0.000     0.000       84        0        0        0        0       23        1    11.328       79     30.3    3.434     1.70       13        7     2069  1311_RCP45_rainfed_15April_sandy.PRM
  Tot(54)       15        4     2070   1350.2    356.0   1558.4   524.00      0.0   1350.2      0.0   1028.5      0.0    149.5       62    104.3    104.3       88     0.000     0.000     0.000     0.000       84        0        0        0        0       28        5     9.985       73     30.1    3.002     1.18       12        7     2070  1311_RCP45_rainfed_15April_sandy.PRM
  Tot(55)       15        4     2071    673.1    420.6   1570.7   525.00      0.0    673.1      0.0    424.4      0.0     94.6       31    126.0    126.0       99     0.000     0.000     0.000     0.000       82        0        0        0        0       19        1    10.842       78     30.1    3.267     1.49       10        7     2071  1311_RCP45_rainfed_15April_sandy.PRM
  Tot(56)       15        4     2072    687.4    389.7   1567.8   527.00      0.0    687.4      0.0    438.2      0.0    117.0       44    129.2    129.2       98     0.000     0.000     0.000     0.000       82        0        0        0        0       15        1    11.850       85     30.0    3.555     1.45       10        7     2072  1311_RCP45_rainfed_15April_sandy.PRM
  Tot(57)       15        4     2073    921.8    449.2   1571.7   527.00      0.0    921.8      0.0    696.6      0.0    105.1       26     64.5     64.5       96     0.000     0.000     0.000     0.000       80        0        0        0        0       44        3     5.161       39     30.0    1.548     0.92        8        7     2073  1311_RCP45_rainfed_15April_sandy.PRM
  Tot(58)       15        4     2074   1473.0    279.6   1571.9   528.00      0.0   1473.0      0.0   1226.4      0.0    125.3       69    100.6    100.6      100     0.000     0.000     0.000     0.000       89        0        0        0        0        1        0    15.041       99     30.0    4.512     2.00       17        7     2074  1311_RCP45_rainfed_15April_sandy.PRM
  Tot(59)       15        4     2075   1156.3    365.9   1565.4   529.00      0.0   1156.3      0.0    879.0      0.0    123.3       59    143.2    143.2       92     0.000     0.000     0.000     0.000       82        0        0        0        0       15        3    12.243       89     30.6    3.741     1.42       10        7     2075  1311_RCP45_rainfed_15April_sandy.PRM
  Tot(60)       15        4     2076    847.1    365.4   1565.7   530.00      0.0    847.1      0.0    651.5      0.0     91.0       31     88.4     88.4      100     0.000     0.000     0.000     0.000       83        0        0        0        0       18        0    11.067       77     30.0    3.322     1.86       11        7     2076  1311_RCP45_rainfed_15April_sandy.PRM
  Tot(61)       15        4     2077   1493.2    345.3   1562.4   530.00      0.0   1493.2      0.0   1187.2      0.0    114.7       52    133.3    133.3      100     0.000     0.000     0.000     0.000       83        0        0        0        0        4        0    13.387       95     30.0    4.016     1.62       11        7     2077  1311_RCP45_rainfed_15April_sandy.PRM
  Tot(62)       15        4     2078    441.3    416.0   1558.9   531.00      0.0    441.3      0.0    215.0      0.0    110.7       33     76.6     76.6       82     0.000     0.000     0.000     0.000       79        0        0        0        0       45        8     6.527       49     30.7    2.003     1.07        7        7     2078  1311_RCP45_rainfed_15April_sandy.PRM
  Tot(63)       15        4     2079    634.8    426.3   1560.5   531.00      0.0    634.8      0.0    446.9      0.0    141.3       38     44.5     44.5       78     0.000     0.000     0.000     0.000       79        0        0        0        0       48       11     2.422       19     30.3    0.734     0.40        7        7     2079  1311_RCP45_rainfed_15April_sandy.PRM
  Tot(64)       15        4     2080    702.8    409.1   1574.7   531.00      0.0    702.8      0.0    516.0      0.0    106.2       35     56.8     56.8       65     0.000     0.000     0.000     0.000       79        0        0        0        0       42       17     3.422       27     25.9    0.885     0.55        7        7     2080  1311_RCP45_rainfed_15April_sandy.PRM
  Tot(65)       15        4     2081    843.7    395.9   1573.0   531.00      0.0    843.7      0.0    628.0      0.0     86.3       29    113.1    113.1       99     0.000     0.000     0.000     0.000       81        0        0        0        0       19        0    10.956       80     30.0    3.287     1.65        9        7     2081  1311_RCP45_rainfed_15April_sandy.PRM
  Tot(66)       15        4     2082   1005.4    380.0   1564.7   531.00      0.0   1005.4      0.0    760.5      0.0    102.9       38     68.3     68.3       71     0.000     0.000     0.000     0.000       84        0        0        0        0       38       11     5.152       37     30.2    1.555     0.91       12        7     2082  1311_RCP45_rainfed_15April_sandy.PRM
  Tot(67)       15        4     2083    515.5    521.1   1573.0   532.00      0.0    515.5      0.0    358.6      0.0    109.8       22     40.6     40.6       84     0.000     0.000     0.000     0.000       76        0        0        0        0       61        8     2.131       17     14.8    0.316     0.21        4        7     2083  1311_RCP45_rainfed_15April_sandy.PRM
  Tot(68)       15        4     2084   1049.1    391.4   1562.7   532.00      0.0   1049.1      0.0    898.5      0.0     95.7       28     57.3     57.3       94     0.000     0.000     0.000     0.000       79        0        0        0        0       40        4     6.319       47     30.0    1.896     1.27        7        7     2084  1311_RCP45_rainfed_15April_sandy.PRM
  Tot(69)       15        4     2085    762.8    417.7   1560.3   532.00      0.0    762.8      0.0    511.7      0.0    125.8       41     99.3     99.3       87     0.000     0.000     0.000     0.000       78        0        0        0        0       32        8     8.007       61     30.0    2.403     1.07        6        7     2085  1311_RCP45_rainfed_15April_sandy.PRM
  Tot(70)       15        4     2086   1172.7    388.6   1564.9   532.00      0.0   1172.7      0.0   1010.1      0.0     90.9       25     44.6     44.6       90     0.000     0.000     0.000     0.000       80        0        0        0        0       48        5     4.332       32     30.0    1.300     0.96        8        7     2086  1311_RCP45_rainfed_15April_sandy.PRM
  Tot(71)       15        4     2087    557.3    432.8   1560.2   533.00      0.0    557.3      0.0    302.7      0.0    124.9       38    105.9    105.9       98     0.000     0.000     0.000     0.000       78        0        0        0        0       36        2     7.876       59     30.2    2.376     1.04        6        7     2087  1311_RCP45_rainfed_15April_sandy.PRM
  Tot(72)       15        4     2088    931.2    420.8   1563.7   533.00      0.0    931.2      0.0    803.8      0.0     79.0       19     42.7     42.7       97     0.000     0.000     0.000     0.000       80        0        0        0        0       46        1     4.568       33     30.0    1.370     1.14        8        7     2088  1311_RCP45_rainfed_15April_sandy.PRM
  Tot(73)       15        4     2089    651.3    449.9   1567.2   533.00      0.0    651.3      0.0    453.1      0.0    132.8       37     57.0     57.0       72     0.000     0.000     0.000     0.000       76        0        0        0        0       47       16     3.128       25     23.6    0.739     0.39        4        7     2089  1311_RCP45_rainfed_15April_sandy.PRM
  Tot(74)       15        4     2090   1368.7    311.9   1558.4   534.00      0.0   1368.7      0.0   1190.4      0.0     81.5       33     73.6     73.6      100     0.000     0.000     0.000     0.000       84        0        0        0        0       15        0    12.013       81     30.0    3.604     2.33       12        7     2090  1311_RCP45_rainfed_15April_sandy.PRM
  Tot(75)       15        4     2091    855.3    455.6   1566.7   534.00      0.0    855.3      0.0    612.0      0.0     97.1       23     63.4     63.4       97     0.000     0.000     0.000     0.000       77        0        0        0        0       48        2     4.523       35     30.0    1.357     0.85        5        7     2091  1311_RCP45_rainfed_15April_sandy.PRM
  Tot(76)       15        4     2092   1246.4    270.3   1567.4   535.00      0.0   1246.4      0.0   1024.2      0.0    116.6       65     93.9     93.9      100     0.000     0.000     0.000     0.000       86        0        0        0        0        1        0    14.507       99     30.0    4.352     2.09       14        7     2092  1311_RCP45_rainfed_15April_sandy.PRM
  Tot(77)       15        4     2093    630.4    423.6   1566.6   535.00      0.0    630.4      0.0    421.5      0.0    125.3       34     65.5     65.5       85     0.000     0.000     0.000     0.000       80        0        0        0        0       46        5     5.245       39     30.4    1.595     0.85        8        7     2093  1311_RCP45_rainfed_15April_sandy.PRM
  Tot(78)       15        4     2094    771.3    364.7   1557.5   535.00      0.0    771.3      0.0    509.0      0.0    121.1       49    114.0    114.0       92     0.000     0.000     0.000     0.000       81        0        0        0        0       20        3    10.891       80     30.0    3.267     1.39        8        7     2094  1311_RCP45_rainfed_15April_sandy.PRM
  Tot(79)       15        4     2095    674.6    435.4   1557.8   536.00      0.0    674.6      0.0    510.9      0.0    120.7       29     38.9     38.9       84     0.000     0.000     0.000     0.000       79        0        0        0        0       60        8     2.167       16     30.9    0.669     0.42        7        7     2095  1311_RCP45_rainfed_15April_sandy.PRM
  Tot(80)       15        4     2096    530.9    413.8   1567.8   536.00      0.0    530.9      0.0    335.5      0.0     92.6       29     96.1     96.1       87     0.000     0.000     0.000     0.000       77        0        0        0        0       37        6     7.264       56     30.7    2.228     1.19        5        7     2096  1311_RCP45_rainfed_15April_sandy.PRM
  Tot(81)       15        4     2097   1009.8    417.4   1570.4   537.00      0.0   1009.8      0.0    817.2      0.0    113.9       34     56.5     56.5       73     0.000     0.000     0.000     0.000       78        0        0        0        0       44       11     3.734       29     30.2    1.128     0.66        6        7     2097  1311_RCP45_rainfed_15April_sandy.PRM
  Tot(82)       15        4     2098    606.3    450.7   1558.5   537.00      0.0    606.3      0.0    376.5      0.0     94.3       29    128.0    128.0       94     0.000     0.000     0.000     0.000       77        0        0        0        0       29        2     9.035       69     30.0    2.711     1.23        5        7     2098  1311_RCP45_rainfed_15April_sandy.PRM
  Tot(83)       15        4     2099    829.8    366.4   1567.7   538.00      0.0    829.8      0.0    601.5      0.0    115.3       48     94.3     94.3       77     0.000     0.000     0.000     0.000       82        0        0        0        0       27        7     9.048       65     30.0    2.717     1.30       10        7     2099  1311_RCP45_rainfed_15April_sandy.PRM
