AquaCrop 6.0 (March 2017) - Output created on (date) : 07/06/2021   at (time) : 20:24:15

    RunNr     Day1   Month1    Year1     Rain      ETo       GD     CO2      Irri   Infilt   Runoff    Drain   Upflow        E     E/Ex       Tr      TrW   Tr/Trx    SaltIn   SaltOut    SaltUp  SaltProf     Cycle   SaltStr  FertStr  WeedStr  TempStr   ExpStr   StoStr  BioMass  Brelative   HI     Yield     WPet     DayN   MonthN    YearN
                                           mm       mm    °C.day    ppm        mm       mm       mm       mm       mm       mm        %       mm       mm        %    ton/ha    ton/ha    ton/ha    ton/ha      days       %        %        %        %        %        %    ton/ha        %       %    ton/ha    kg/m3
   Tot(1)       15        4     2017    558.6    542.5   1565.7   404.00      0.0    558.6      0.0    347.0      0.0     87.6       19     71.1     71.1       78     0.000     0.000     0.000     0.000       79        0        0        0        0       49       17     3.564       28     28.5    1.015     0.64        7        7     2017  1311_RCP45_rainfed_15April_sandyloam.PRM
   Tot(2)       15        4     2018    664.0    467.0   1564.2   407.00      0.0    664.0      0.0    394.6      0.0    110.3       37    155.8    155.8       91     0.000     0.000     0.000     0.000       83        0        0        0        0       28        4     9.721       72     30.0    2.917     1.11       11        7     2018  1311_RCP45_rainfed_15April_sandyloam.PRM
   Tot(3)       15        4     2019    124.3    596.8   1570.5   409.00      0.0    124.3      0.0      0.0      0.0     70.4       14     70.8     70.8       79     0.000     0.000     0.000     0.000       62        0        0        0        0       50       18     3.296       27     16.0    0.528     0.41        4        7     2019  1311_RCP45_rainfed_15April_sandyloam.PRM
   Tot(4)       15        4     2020    418.4    509.9   1565.0   411.00      0.0    418.4      0.0    170.9      0.0    157.7       35     82.4     82.4       97     0.000     0.000     0.000     0.000       81        0        0        0        0       48        2     4.911       37     30.3    1.487     0.62        9        7     2020  1311_RCP45_rainfed_15April_sandyloam.PRM
   Tot(5)       15        4     2021   1107.6    323.4   1561.1   413.00      0.0   1107.6      0.0    856.8      0.0    122.4       60    125.7    125.7      100     0.000     0.000     0.000     0.000       90        0        0        0        1        6        0    14.263       95     30.0    4.279     1.74       19        7     2021  1311_RCP45_rainfed_15April_sandyloam.PRM
   Tot(6)       15        4     2022   1023.2    415.4   1561.3   416.00      0.0   1023.2      0.0    707.9      0.0    117.6       47    175.4    175.4       98     0.000     0.000     0.000     0.000       86        0        0        0        1       12        1    12.864       92     30.1    3.878     1.33       14        7     2022  1311_RCP45_rainfed_15April_sandyloam.PRM
   Tot(7)       15        4     2023    869.3    387.0   1561.8   418.00      0.0    869.3      0.0    525.6      0.0    110.9       41    121.4    121.4      100     0.000     0.000     0.000     0.000       86        0        0        0        1       22        0    11.761       81     30.0    3.528     1.52       14        7     2023  1311_RCP45_rainfed_15April_sandyloam.PRM
   Tot(8)       15        4     2024    358.2    492.2   1563.8   420.00      0.0    358.2      0.0     88.6      0.0    106.9       30    113.5    113.5       79     0.000     0.000     0.000     0.000       82        0        0        0        0       38       13     6.284       47     30.1    1.890     0.86       10        7     2024  1311_RCP45_rainfed_15April_sandyloam.PRM
   Tot(9)       15        4     2025    199.5    597.3   1567.2   423.00      0.0    199.5      0.0      0.6      0.0    128.8       22     66.4     66.4       98     0.000     0.000     0.000     0.000       80        0        0        0        0       56        1     3.173       24     30.9    0.979     0.51        8        7     2025  1311_RCP45_rainfed_15April_sandyloam.PRM
  Tot(10)       15        4     2026    542.7    486.6   1571.2   425.00      0.0    542.7      0.0    195.4      0.0    103.1       35    189.1    189.1      100     0.000     0.000     0.000     0.000       81        0        0        0        0       10        0    11.817       88     30.1    3.557     1.22        9        7     2026  1311_RCP45_rainfed_15April_sandyloam.PRM
  Tot(11)       15        4     2027    257.6    560.2   1567.9   428.00      0.0    257.6      0.0     49.7      0.0    115.4       26     82.5     82.5       75     0.000     0.000     0.000     0.000       58        0        0        0        0       46       21     3.828       31     15.0    0.573     0.39        4        7     2027  1311_RCP45_rainfed_15April_sandyloam.PRM
  Tot(12)       15        4     2028    963.9    415.3   1568.8   430.00      0.0    963.9      0.0    482.7      0.0    124.7       50    175.0    175.0      100     0.000     0.000     0.000     0.000       85        0        0        0        0        8        0    12.935       93     30.1    3.899     1.30       14        7     2028  1311_RCP45_rainfed_15April_sandyloam.PRM
  Tot(13)       15        4     2029     98.6    581.1   1570.6   433.00      0.0     98.6      0.0      0.0      0.0    109.5       23     82.3     82.3       79     0.000     0.000     0.000     0.000       77        0        0        0        0       47       18     4.303       34     30.4    1.308     0.70        5        7     2029  1311_RCP45_rainfed_15April_sandyloam.PRM
  Tot(14)       15        4     2030   1089.4    416.0   1563.8   435.00      0.0   1089.4      0.0    736.3      0.0    122.1       46    160.0    160.0       99     0.000     0.000     0.000     0.000       85        0        0        0        0       17        1    12.097       86     30.7    3.710     1.32       13        7     2030  1311_RCP45_rainfed_15April_sandyloam.PRM
  Tot(15)       15        4     2031    363.7    561.2   1557.9   438.00      0.0    363.7      0.0    101.8      0.0    142.1       35     92.1     92.1       74     0.000     0.000     0.000     0.000       79        0        0        0        0       41       18     4.492       36     14.7    0.663     0.28        6        7     2031  1311_RCP45_rainfed_15April_sandyloam.PRM
  Tot(16)       15        4     2032    315.9    511.1   1562.4   440.00      0.0    315.9      0.0     67.2      0.0    149.9       39     79.3     79.3       75     0.000     0.000     0.000     0.000       78        0        0        0        0       44       17     4.224       33     30.5    1.286     0.56        6        7     2032  1311_RCP45_rainfed_15April_sandyloam.PRM
  Tot(17)       15        4     2033    628.6    449.2   1568.8   443.00      0.0    628.6      0.0    369.3      0.0    102.4       34    147.9    147.9       92     0.000     0.000     0.000     0.000       82        0        0        0        0       26        3    10.565       78     30.0    3.170     1.27       10        7     2033  1311_RCP45_rainfed_15April_sandyloam.PRM
  Tot(18)       15        4     2034    801.8    360.0   1558.1   445.00      0.0    801.8      0.0    494.2      0.0    111.4       47    125.0    125.0       97     0.000     0.000     0.000     0.000       88        0        0        0        1       17        1    12.736       87     30.0    3.821     1.62       16        7     2034  1311_RCP45_rainfed_15April_sandyloam.PRM
  Tot(19)       15        4     2035    200.1    511.2   1567.3   448.00      0.0    200.1      0.0      0.0      0.0    125.3       40    143.3    143.3       78     0.000     0.000     0.000     0.000       78        0        0        0        0       30       11     8.546       66     29.9    2.555     0.95        6        7     2035  1311_RCP45_rainfed_15April_sandyloam.PRM
  Tot(20)       15        4     2036    847.0    393.2   1571.0   450.00      0.0    847.0      0.0    569.1      0.0    127.9       52    151.5    151.5      100     0.000     0.000     0.000     0.000       84        0        0        0        0        9       -0    12.810       92     30.4    3.900     1.41       12        7     2036  1311_RCP45_rainfed_15April_sandyloam.PRM
  Tot(21)       15        4     2037    511.9    454.9   1569.9   453.00      0.0    511.9      0.0    279.6      0.0    114.3       30     93.0     93.0       94     0.000     0.000     0.000     0.000       83        0        0        0        0       44        3     6.119       45     30.2    1.851     0.90       11        7     2037  1311_RCP45_rainfed_15April_sandyloam.PRM
  Tot(22)       15        4     2038   1099.9    447.0   1562.1   456.00      0.0   1099.9      0.0    809.4      0.0    111.7       41    174.7    174.7       96     0.000     0.000     0.000     0.000       84        0        0        0        0        9        2    11.984       88     30.2    3.616     1.26       12        7     2038  1311_RCP45_rainfed_15April_sandyloam.PRM
  Tot(23)       15        4     2039    541.0    377.1   1560.3   458.00      0.0    541.0      0.0    237.7      0.0    106.9       46    146.5    146.5      100     0.000     0.000     0.000     0.000       83        0        0        0        0        8        0    12.932       93     30.1    3.895     1.54       11        7     2039  1311_RCP45_rainfed_15April_sandyloam.PRM
  Tot(24)       15        4     2040    617.3    431.9   1559.2   461.00      0.0    617.3      0.0    303.8      0.0    105.0       37    108.9    108.9       80     0.000     0.000     0.000     0.000       80        0        0        0        0       36       10     6.689       51     30.4    2.036     0.95        8        7     2040  1311_RCP45_rainfed_15April_sandyloam.PRM
  Tot(25)       15        4     2041    139.4    581.7   1563.1   463.00      0.0    139.4      0.0      0.0      0.0     99.5       21     75.9     75.9       77     0.000     0.000     0.000     0.000       77        0        0        0        0       47       14     3.876       31     17.0    0.658     0.38        5        7     2041  1311_RCP45_rainfed_15April_sandyloam.PRM
  Tot(26)       15        4     2042    210.5    501.0   1563.8   466.00      0.0    210.5      0.0      0.0      0.0    105.3       29     84.7     84.7       76     0.000     0.000     0.000     0.000       58        0        0        0        0       43       20     4.156       33     12.0    0.499     0.30        5        7     2042  1311_RCP45_rainfed_15April_sandyloam.PRM
  Tot(27)       15        4     2043    490.7    497.9   1562.3   469.00      0.0    490.7      0.0    226.7      0.0    121.3       32    126.8    126.8       99     0.000     0.000     0.000     0.000       80        0        0        0        0       35        1     8.617       64     30.3    2.612     1.06        8        7     2043  1311_RCP45_rainfed_15April_sandyloam.PRM
  Tot(28)       15        4     2044    885.5    407.1   1566.2   471.00      0.0    885.5      0.0    627.2      0.0    129.7       42    102.9    102.9       95     0.000     0.000     0.000     0.000       81        0        0        0        0       38        2     8.553       63     30.1    2.576     1.11        9        7     2044  1311_RCP45_rainfed_15April_sandyloam.PRM
  Tot(29)       15        4     2045    883.4    373.6   1564.0   474.00      0.0    883.4      0.0    571.8      0.0    142.2       67    150.8    150.8       92     0.000     0.000     0.000     0.000       85        0        0        0        0       24        3    12.246       87     30.6    3.752     1.29       14        7     2045  1311_RCP45_rainfed_15April_sandyloam.PRM
  Tot(30)       15        4     2046    957.9    378.9   1561.6   476.00      0.0    957.9      0.0    711.4      0.0    121.2       46    118.1    118.1       93     0.000     0.000     0.000     0.000       86        0        0        0        0       25        2    11.700       82     30.1    3.517     1.47       14        7     2046  1311_RCP45_rainfed_15April_sandyloam.PRM
  Tot(31)       15        4     2047    743.9    366.2   1558.9   479.00      0.0    743.9      0.0    496.7      0.0    125.0       51    122.2    122.2      100     0.000     0.000     0.000     0.000       85        0        0        0        0       15        0    12.941       89     30.0    3.882     1.58       13        7     2047  1311_RCP45_rainfed_15April_sandyloam.PRM
  Tot(32)       15        4     2048    451.0    431.7   1566.8   481.00      0.0    451.0      0.0    207.2      0.0    105.4       33    108.5    108.5       92     0.000     0.000     0.000     0.000       82        0        0        0        0       33        2     9.479       68     30.7    2.909     1.37       10        7     2048  1311_RCP45_rainfed_15April_sandyloam.PRM
  Tot(33)       15        4     2049    396.6    515.8   1558.5   484.00      0.0    396.6      0.0    205.7      0.0    109.6       27     73.6     73.6       76     0.000     0.000     0.000     0.000       61        0        0        0        0       46       20     3.798       30     16.2    0.614     0.40        5        7     2049  1311_RCP45_rainfed_15April_sandyloam.PRM
  Tot(34)       15        4     2050    911.6    355.2   1571.0   487.00      0.0    911.6      0.0    565.6      0.0    131.9       66    159.3    159.3      100     0.000     0.000     0.000     0.000       85        0        0        0        0       13        0    13.384       95     30.5    4.083     1.41       14        7     2050  1311_RCP45_rainfed_15April_sandyloam.PRM
  Tot(35)       15        4     2051    587.1    490.5   1562.4   489.00      0.0    587.1      0.0    330.5      0.0    104.0       29    136.8    136.8       91     0.000     0.000     0.000     0.000       79        0        0        0        0       35        4     8.648       66     30.6    2.642     1.10        7        7     2051  1311_RCP45_rainfed_15April_sandyloam.PRM
  Tot(36)       15        4     2052    637.7    486.7   1567.0   492.00      0.0    637.7      0.0    401.6      0.0    102.1       24     70.2     70.2       86     0.000     0.000     0.000     0.000       79        0        0        0        0       53        7     3.590       28     30.7    1.102     0.64        7        7     2052  1311_RCP45_rainfed_15April_sandyloam.PRM
  Tot(37)       15        4     2053    765.7    429.8   1565.7   494.00      0.0    765.7      0.0    520.3      0.0     94.2       31    131.8    131.8      100     0.000     0.000     0.000     0.000       82        0        0        0        0       16        0    11.206       81     30.0    3.362     1.50       10        7     2053  1311_RCP45_rainfed_15April_sandyloam.PRM
  Tot(38)       15        4     2054    862.4    446.5   1567.5   496.00      0.0    862.4      0.0    643.9      0.0    124.5       37     82.6     82.6       82     0.000     0.000     0.000     0.000       80        0        0        0        0       47        8     4.840       37     30.5    1.477     0.72        8        7     2054  1311_RCP45_rainfed_15April_sandyloam.PRM
  Tot(39)       15        4     2055    496.7    469.3   1572.6   498.00      0.0    496.7      0.0    171.3      0.0    119.7       42    172.5    172.5      100     0.000     0.000     0.000     0.000       81        0        0        0        0       13        0    12.174       89     30.2    3.679     1.26        9        7     2055  1311_RCP45_rainfed_15April_sandyloam.PRM
  Tot(40)       15        4     2056    974.4    436.0   1568.8   501.00      0.0    974.4      0.0    716.1      0.0     96.8       34    158.0    158.0      100     0.000     0.000     0.000     0.000       82        0        0        0        0       19        0    11.609       85     30.6    3.554     1.40       10        7     2056  1311_RCP45_rainfed_15April_sandyloam.PRM
  Tot(41)       15        4     2057    826.4    441.0   1558.8   503.00      0.0    826.4      0.0    607.1      0.0     86.8       27    109.9    109.9       88     0.000     0.000     0.000     0.000       81        0        0        0        0       39        5     8.061       60     30.8    2.481     1.27        9        7     2057  1311_RCP45_rainfed_15April_sandyloam.PRM
  Tot(42)       15        4     2058    822.2    378.2   1557.5   505.00      0.0    822.2      0.0    580.4      0.0    107.1       41    122.7    122.7      100     0.000     0.000     0.000     0.000       86        0        0        0        0       10        0    13.145       90     30.0    3.943     1.72       13        7     2058  1311_RCP45_rainfed_15April_sandyloam.PRM
  Tot(43)       15        4     2059   1523.1    349.1   1567.6   507.00      0.0   1523.1      0.0   1223.8      0.0    122.3       57    144.1    144.1      100     0.000     0.000     0.000     0.000       88        0        0        0        1        4        1    13.775       96     30.0    4.136     1.56       16        7     2059  1311_RCP45_rainfed_15April_sandyloam.PRM
  Tot(44)       15        4     2060   1141.7    407.6   1573.9   509.00      0.0   1141.7      0.0    911.9      0.0     94.5       33    121.1    121.1       92     0.000     0.000     0.000     0.000       81        0        0        0        0       26        2    10.114       75     30.7    3.103     1.45        9        7     2060  1311_RCP45_rainfed_15April_sandyloam.PRM
  Tot(45)       15        4     2061    519.8    461.9   1570.7   511.00      0.0    519.8      0.0    309.7      0.0    104.3       33    102.0    102.0       80     0.000     0.000     0.000     0.000       80        0        0        0        0       39       11     5.694       44     28.0    1.595     0.78        8        7     2061  1311_RCP45_rainfed_15April_sandyloam.PRM
  Tot(46)       15        4     2062    703.8    440.3   1565.0   513.00      0.0    703.8      0.0    477.6      0.0     98.9       29    107.1    107.1       95     0.000     0.000     0.000     0.000       81        0        0        0        0       35        2     8.449       63     30.2    2.548     1.24        9        7     2062  1311_RCP45_rainfed_15April_sandyloam.PRM
  Tot(47)       15        4     2063    700.8    438.5   1570.8   514.00      0.0    700.8      0.0    492.2      0.0     90.8       25     90.9     90.9       91     0.000     0.000     0.000     0.000       81        0        0        0        0       41        3     7.680       56     30.1    2.313     1.28        9        7     2063  1311_RCP45_rainfed_15April_sandyloam.PRM
  Tot(48)       15        4     2064   1119.6    420.4   1562.0   516.00      0.0   1119.6      0.0    841.5      0.0    112.2       41    155.3    155.3       98     0.000     0.000     0.000     0.000       83        0        0        0        0       17        1    11.769       85     30.0    3.532     1.32       11        7     2064  1311_RCP45_rainfed_15April_sandyloam.PRM
  Tot(49)       15        4     2065    445.1    530.3   1559.8   518.00      0.0    445.1      0.0    216.2      0.0    100.5       28    105.6    105.6       74     0.000     0.000     0.000     0.000       62        0        0        0        0       37       23     5.274       42      2.3    0.122     0.07        4        7     2065  1311_RCP45_rainfed_15April_sandyloam.PRM
  Tot(50)       15        4     2066    992.0    362.5   1568.6   519.00      0.0    992.0      0.0    709.1      0.0    137.7       55     99.6     99.6       87     0.000     0.000     0.000     0.000       84        0        0        0        0       35        6     9.048       65     30.0    2.714     1.15       12        7     2066  1311_RCP45_rainfed_15April_sandyloam.PRM
  Tot(51)       15        4     2067   1353.7    423.6   1569.2   520.00      0.0   1353.7      0.0   1046.5      0.0    101.6       40    160.7    160.7       93     0.000     0.000     0.000     0.000       82        0        0        0        0       17        3    11.308       83     30.8    3.489     1.33       10        7     2067  1311_RCP45_rainfed_15April_sandyloam.PRM
  Tot(52)       15        4     2068    573.9    448.3   1571.0   522.00      0.0    573.9      0.0    289.8      0.0     81.3       25    138.3    138.3      100     0.000     0.000     0.000     0.000       81        0        0        0        0       24        0    10.208       76     30.3    3.094     1.41        9        7     2068  1311_RCP45_rainfed_15April_sandyloam.PRM
  Tot(53)       15        4     2069   1047.7    362.3   1557.5   523.00      0.0   1047.7      0.0    819.5      0.0     93.2       38    128.2    128.2      100     0.000     0.000     0.000     0.000       84        0        0        0        0       13        0    12.682       88     30.2    3.828     1.73       13        7     2069  1311_RCP45_rainfed_15April_sandyloam.PRM
  Tot(54)       15        4     2070   1350.2    356.0   1558.4   524.00      0.0   1350.2      0.0    998.4      0.0    152.2       68    133.4    133.4       97     0.000     0.000     0.000     0.000       84        0        0        0        0       24        1    11.907       87     30.1    3.588     1.26       12        7     2070  1311_RCP45_rainfed_15April_sandyloam.PRM
  Tot(55)       15        4     2071    673.1    420.6   1570.7   525.00      0.0    673.1      0.0    401.2      0.0     97.1       34    146.9    146.9      100     0.000     0.000     0.000     0.000       82        0        0        0        0       11        0    12.377       89     30.0    3.718     1.53       10        7     2071  1311_RCP45_rainfed_15April_sandyloam.PRM
  Tot(56)       15        4     2072    687.4    389.7   1567.8   527.00      0.0    687.4      0.0    419.8      0.0    123.1       49    142.7    142.7      100     0.000     0.000     0.000     0.000       82        0        0        0        0        9        0    12.756       92     30.0    3.827     1.45       10        7     2072  1311_RCP45_rainfed_15April_sandyloam.PRM
  Tot(57)       15        4     2073    921.8    449.2   1571.7   527.00      0.0    921.8      0.0    668.6      0.0     90.1       25    107.5    107.5       96     0.000     0.000     0.000     0.000       80        0        0        0        0       35        2     8.174       62     30.0    2.452     1.25        8        7     2073  1311_RCP45_rainfed_15April_sandyloam.PRM
  Tot(58)       15        4     2074   1473.0    279.6   1571.9   528.00      0.0   1473.0      0.0   1214.3      0.0    138.0       76    101.2    101.2      100     0.000     0.000     0.000     0.000       89        0        0        0        0        1        0    15.090       99     30.0    4.527     1.90       17        7     2074  1311_RCP45_rainfed_15April_sandyloam.PRM
  Tot(59)       15        4     2075   1156.3    365.9   1565.4   529.00      0.0   1156.3      0.0    860.9      0.0    126.0       61    158.7    158.7      100     0.000     0.000     0.000     0.000       82        0        0        0        0        8        0    13.261       96     30.5    4.047     1.43       10        7     2075  1311_RCP45_rainfed_15April_sandyloam.PRM
  Tot(60)       15        4     2076    847.1    365.4   1565.7   530.00      0.0    847.1      0.0    639.1      0.0     91.4       33    101.7    101.7      100     0.000     0.000     0.000     0.000       83        0        0        0        0       12        0    12.217       85     30.0    3.665     1.91       11        7     2076  1311_RCP45_rainfed_15April_sandyloam.PRM
  Tot(61)       15        4     2077   1493.2    345.3   1562.4   530.00      0.0   1493.2      0.0   1176.7      0.0    125.3       58    134.8    134.8      100     0.000     0.000     0.000     0.000       83        0        0        0        0        4        0    13.495       96     30.0    4.048     1.56       11        7     2077  1311_RCP45_rainfed_15April_sandyloam.PRM
  Tot(62)       15        4     2078    441.3    416.0   1558.9   531.00      0.0    441.3      0.0    184.7      0.0    106.7       36    111.8    111.8       88     0.000     0.000     0.000     0.000       79        0        0        0        0       39        5     8.996       67     30.9    2.782     1.28        7        7     2078  1311_RCP45_rainfed_15April_sandyloam.PRM
  Tot(63)       15        4     2079    634.8    426.3   1560.5   531.00      0.0    634.8      0.0    403.2      0.0    130.9       43     98.9     98.9       84     0.000     0.000     0.000     0.000       79        0        0        0        0       41        8     5.987       46     30.3    1.813     0.79        7        7     2079  1311_RCP45_rainfed_15April_sandyloam.PRM
  Tot(64)       15        4     2080    702.8    409.1   1574.7   531.00      0.0    702.8      0.0    480.4      0.0    103.3       39     95.7     95.7       76     0.000     0.000     0.000     0.000       79        0        0        0        0       36       11     5.711       45     30.6    1.746     0.89        7        7     2080  1311_RCP45_rainfed_15April_sandyloam.PRM
  Tot(65)       15        4     2081    843.7    395.9   1573.0   531.00      0.0    843.7      0.0    606.9      0.0     90.1       33    131.9    131.9       99     0.000     0.000     0.000     0.000       81        0        0        0        0       12        0    12.050       88     30.0    3.615     1.63        9        7     2081  1311_RCP45_rainfed_15April_sandyloam.PRM
  Tot(66)       15        4     2082   1005.4    380.0   1564.7   531.00      0.0   1005.4      0.0    712.5      0.0    103.8       43    116.5    116.5       83     0.000     0.000     0.000     0.000       84        0        0        0        0       30        5     9.458       67     30.3    2.862     1.30       12        7     2082  1311_RCP45_rainfed_15April_sandyloam.PRM
  Tot(67)       15        4     2083    515.5    521.1   1573.0   532.00      0.0    515.5      0.0    327.6      0.0    110.6       25     70.7     70.7       81     0.000     0.000     0.000     0.000       76        0        0        0        0       52       10     3.440       27     14.8    0.509     0.28        4        7     2083  1311_RCP45_rainfed_15April_sandyloam.PRM
  Tot(68)       15        4     2084   1049.1    391.4   1562.7   532.00      0.0   1049.1      0.0    872.8      0.0     94.8       30     84.1     84.1       96     0.000     0.000     0.000     0.000       79        0        0        0        0       34        2     8.100       60     30.0    2.430     1.39        7        7     2084  1311_RCP45_rainfed_15April_sandyloam.PRM
  Tot(69)       15        4     2085    762.8    417.7   1560.3   532.00      0.0    762.8      0.0    481.2      0.0    124.7       45    131.6    131.6       92     0.000     0.000     0.000     0.000       78        0        0        0        0       28        4     9.837       75     30.0    2.951     1.15        6        7     2085  1311_RCP45_rainfed_15April_sandyloam.PRM
  Tot(70)       15        4     2086   1172.7    388.6   1564.9   532.00      0.0   1172.7      0.0    981.7      0.0     83.8       26     81.5     81.5       92     0.000     0.000     0.000     0.000       80        0        0        0        0       40        3     7.510       55     30.0    2.253     1.37        8        7     2086  1311_RCP45_rainfed_15April_sandyloam.PRM
  Tot(71)       15        4     2087    557.3    432.8   1560.2   533.00      0.0    557.3      0.0    276.5      0.0    121.5       42    137.3    137.3       99     0.000     0.000     0.000     0.000       78        0        0        0        0       28        0    10.313       77     30.3    3.120     1.21        6        7     2087  1311_RCP45_rainfed_15April_sandyloam.PRM
  Tot(72)       15        4     2088    931.2    420.8   1563.7   533.00      0.0    931.2      0.0    775.0      0.0     69.7       19     81.0     81.0       96     0.000     0.000     0.000     0.000       80        0        0        0        0       37        1     8.077       59     30.0    2.423     1.62        8        7     2088  1311_RCP45_rainfed_15April_sandyloam.PRM
  Tot(73)       15        4     2089    651.3    449.9   1567.2   533.00      0.0    651.3      0.0    423.1      0.0    124.0       41     97.0     97.0       76     0.000     0.000     0.000     0.000       76        0        0        0        0       40       11     5.680       45     23.9    1.357     0.62        4        7     2089  1311_RCP45_rainfed_15April_sandyloam.PRM
  Tot(74)       15        4     2090   1368.7    311.9   1558.4   534.00      0.0   1368.7      0.0   1177.5      0.0     85.0       37     84.0     84.0      100     0.000     0.000     0.000     0.000       84        0        0        0        0       10       -0    13.036       88     30.0    3.911     2.32       12        7     2090  1311_RCP45_rainfed_15April_sandyloam.PRM
  Tot(75)       15        4     2091    855.3    455.6   1566.7   534.00      0.0    855.3      0.0    578.4      0.0     87.3       24    108.5    108.5       97     0.000     0.000     0.000     0.000       77        0        0        0        0       39        1     7.509       57     30.0    2.253     1.15        5        7     2091  1311_RCP45_rainfed_15April_sandyloam.PRM
  Tot(76)       15        4     2092   1246.4    270.3   1567.4   535.00      0.0   1246.4      0.0   1010.1      0.0    130.6       73     94.5     94.5      100     0.000     0.000     0.000     0.000       86        0        0        0        0        0        0    14.568       99     30.0    4.370     1.96       14        7     2092  1311_RCP45_rainfed_15April_sandyloam.PRM
  Tot(77)       15        4     2093    630.4    423.6   1566.6   535.00      0.0    630.4      0.0    392.6      0.0    109.6       36    111.0    111.0       85     0.000     0.000     0.000     0.000       80        0        0        0        0       37        4     8.564       64     30.5    2.611     1.20        8        7     2093  1311_RCP45_rainfed_15April_sandyloam.PRM
  Tot(78)       15        4     2094    771.3    364.7   1557.5   535.00      0.0    771.3      0.0    482.2      0.0    126.8       55    136.6    136.6       99     0.000     0.000     0.000     0.000       81        0        0        0        0       15        0    12.211       90     30.0    3.663     1.39        8        7     2094  1311_RCP45_rainfed_15April_sandyloam.PRM
  Tot(79)       15        4     2095    674.6    435.4   1557.8   536.00      0.0    674.6      0.0    473.4      0.0    123.4       34     73.9     73.9       86     0.000     0.000     0.000     0.000       79        0        0        0        0       53        7     4.296       32     30.8    1.325     0.67        7        7     2095  1311_RCP45_rainfed_15April_sandyloam.PRM
  Tot(80)       15        4     2096    530.9    413.8   1567.8   536.00      0.0    530.9      0.0    295.2      0.0     97.2       34    132.1    132.1       94     0.000     0.000     0.000     0.000       77        0        0        0        0       30        3     9.814       75     30.8    3.022     1.32        5        7     2096  1311_RCP45_rainfed_15April_sandyloam.PRM
  Tot(81)       15        4     2097   1009.8    417.4   1570.4   537.00      0.0   1009.8      0.0    783.7      0.0    113.1       37     91.9     91.9       81     0.000     0.000     0.000     0.000       78        0        0        0        0       41        7     6.642       51     30.3    2.009     0.98        6        7     2097  1311_RCP45_rainfed_15April_sandyloam.PRM
  Tot(82)       15        4     2098    606.3    450.7   1558.5   537.00      0.0    606.3      0.0    349.5      0.0     93.3       31    156.7    156.7       99     0.000     0.000     0.000     0.000       77        0        0        0        0       21        0    10.829       83     30.0    3.254     1.31        5        7     2098  1311_RCP45_rainfed_15April_sandyloam.PRM
  Tot(83)       15        4     2099    829.8    366.4   1567.7   538.00      0.0    829.8      0.0    570.2      0.0    118.3       51    124.2    124.2       89     0.000     0.000     0.000     0.000       82        0        0        0        0       22        3    11.831       85     30.1    3.563     1.47       10        7     2099  1311_RCP45_rainfed_15April_sandyloam.PRM
