AquaCrop 6.0 (March 2017) - Output created on (date) : 07/06/2021   at (time) : 19:55:07

    RunNr     Day1   Month1    Year1     Rain      ETo       GD     CO2      Irri   Infilt   Runoff    Drain   Upflow        E     E/Ex       Tr      TrW   Tr/Trx    SaltIn   SaltOut    SaltUp  SaltProf     Cycle   SaltStr  FertStr  WeedStr  TempStr   ExpStr   StoStr  BioMass  Brelative   HI     Yield     WPet     DayN   MonthN    YearN
                                           mm       mm    °C.day    ppm        mm       mm       mm       mm       mm       mm        %       mm       mm        %    ton/ha    ton/ha    ton/ha    ton/ha      days       %        %        %        %        %        %    ton/ha        %       %    ton/ha    kg/m3
   Tot(1)       15        5     2017   1872.0    369.4   1560.2   407.00      0.0   1872.0      0.0   1585.3      0.0    190.2       97    102.5    102.5      100     0.000     0.000     0.000     0.000      146        0        0        0       23        0        0    18.478       99     30.0    5.543     1.91       15       10     2017  1206_RCP85_rainfed_15May_loam.PRM
   Tot(2)       15        5     2018   1552.8    348.5   1558.0   410.00      0.0   1552.8      0.0   1296.8      0.0    152.6       77    101.1    101.1      100     0.000     0.000     0.000     0.000      138        0        0        0       19        1        0    18.328       98     30.0    5.498     2.19        6       10     2018  1206_RCP85_rainfed_15May_loam.PRM
   Tot(3)       15        5     2019   1664.9    372.4   1564.3   413.00      0.0   1664.9      0.0   1368.0      0.0    186.1       79    109.0    109.0       99     0.000     0.000     0.000     0.000      129        0        0        0       14        1        1    17.749       96     30.0    5.325     1.81       27        9     2019  1206_RCP85_rainfed_15May_loam.PRM
   Tot(4)       15        5     2020   1555.7    349.7   1562.0   416.00      0.0   1555.7      0.0   1300.1      0.0    155.5       75     90.3     90.3      100     0.000     0.000     0.000     0.000      141        0        0        0       21        1        0    18.242       98     30.0    5.473     2.24        9       10     2020  1206_RCP85_rainfed_15May_loam.PRM
   Tot(5)       15        5     2021   1654.4    391.6   1559.2   419.00      0.0   1654.4      0.0   1413.0      0.0    162.5       71     96.0     96.0      100     0.000     0.000     0.000     0.000      145        0        0        0       23        1        0    18.275       98     30.0    5.483     2.13       14       10     2021  1206_RCP85_rainfed_15May_loam.PRM
   Tot(6)       15        5     2022   1205.3    402.9   1557.6   422.00      0.0   1205.3      0.0    979.9      0.0    117.9       41    102.1    102.1      100     0.000     0.000     0.000     0.000      124        0        0        0       13        9        0    16.253       90     30.0    4.876     2.22       22        9     2022  1206_RCP85_rainfed_15May_loam.PRM
   Tot(7)       15        5     2023   1535.7    353.7   1558.8   425.00      0.0   1535.7      0.0   1263.4      0.0    182.8       97    101.9    101.9      100     0.000     0.000     0.000     0.000      143        0        0        0       22        0        0    18.618       99     30.0    5.585     1.97       12       10     2023  1206_RCP85_rainfed_15May_loam.PRM
   Tot(8)       15        5     2024   1939.9    343.7   1558.5   428.00      0.0   1939.9      0.0   1701.8      0.0    157.4       79     92.4     92.4      100     0.000     0.000     0.000     0.000      140        0        0        0       20        0        0    18.466       98     30.0    5.540     2.24        8       10     2024  1206_RCP85_rainfed_15May_loam.PRM
   Tot(9)       15        5     2025   1262.3    363.9   1564.4   431.00      0.0   1262.3      0.0    963.2      0.0    178.2       86    109.7    109.7      100     0.000     0.000     0.000     0.000      137        0        0        0       18        0        0    18.574       99     30.0    5.572     1.95        5       10     2025  1206_RCP85_rainfed_15May_loam.PRM
  Tot(10)       15        5     2026   1485.3    423.3   1557.4   435.00      0.0   1485.3      0.0   1264.9      0.0    120.0       40    103.9    103.9       99     0.000     0.000     0.000     0.000      122        0        0        0       12       11        1    15.711       87     30.0    4.713     2.11       19        9     2026  1206_RCP85_rainfed_15May_loam.PRM
  Tot(11)       15        5     2027   1411.9    378.3   1563.8   438.00      0.0   1411.9      0.0   1139.1      0.0    170.6       73    103.7    103.7      100     0.000     0.000     0.000     0.000      137        0        0        0       19        1        0    18.340       98     30.0    5.502     2.02        5       10     2027  1206_RCP85_rainfed_15May_loam.PRM
  Tot(12)       15        5     2028   1823.7    358.8   1560.8   442.00      0.0   1823.7      0.0   1581.4      0.0    162.4       72     82.4     82.4       99     0.000     0.000     0.000     0.000      137        0        0        0       19        1        0    18.323       97     30.0    5.497     2.26        5       10     2028  1206_RCP85_rainfed_15May_loam.PRM
  Tot(13)       15        5     2029   1450.2    338.9   1565.5   445.00      0.0   1450.2      0.0   1176.5      0.0    174.8       89    103.5    103.5      100     0.000     0.000     0.000     0.000      129        0        0        0       14        0        0    18.609       99     30.0    5.583     2.02       28        9     2029  1206_RCP85_rainfed_15May_loam.PRM
  Tot(14)       15        5     2030   1828.0    353.4   1565.3   449.00      0.0   1828.0      0.0   1537.9      0.0    189.0       85     96.7     96.7      100     0.000     0.000     0.000     0.000      127        0        0        0       12        0        0    18.598       99     30.0    5.579     1.96       25        9     2030  1206_RCP85_rainfed_15May_loam.PRM
  Tot(15)       15        5     2031   1952.4    404.4   1561.4   452.00      0.0   1952.4      0.0   1690.5      0.0    173.7       74    106.1    106.1       98     0.000     0.000     0.000     0.000      133        0        0        0       16        0        2    18.184       96     30.0    5.455     1.96        1       10     2031  1206_RCP85_rainfed_15May_loam.PRM
  Tot(16)       15        5     2032   1577.2    377.0   1564.8   456.00      0.0   1577.2      0.0   1316.4      0.0    167.6       73     97.6     97.6      100     0.000     0.000     0.000     0.000      133        0        0        0       16        1        0    18.338       98     30.0    5.501     2.09       30        9     2032  1206_RCP85_rainfed_15May_loam.PRM
  Tot(17)       15        5     2033   1370.8    377.5   1558.6   460.00      0.0   1370.8      0.0   1101.4      0.0    172.5       74     98.9     98.9       99     0.000     0.000     0.000     0.000      132        0        0        0       17        2        1    18.143       96     30.0    5.443     2.02       30        9     2033  1206_RCP85_rainfed_15May_loam.PRM
  Tot(18)       15        5     2034   2345.7    328.1   1560.5   464.00      0.0   2345.7      0.0   2079.5      0.0    168.8       91    103.2    103.2       99     0.000     0.000     0.000     0.000      139        0        0        0       21        0        1    18.235       97     30.0    5.471     2.02        7       10     2034  1206_RCP85_rainfed_15May_loam.PRM
  Tot(19)       15        5     2035   1380.9    384.3   1557.1   468.00      0.0   1380.9      0.0   1080.2      0.0    183.2       83    103.4    103.4      100     0.000     0.000     0.000     0.000      139        0        0        0       19        0        0    18.728       99     30.0    5.618     1.96        6       10     2035  1206_RCP85_rainfed_15May_loam.PRM
  Tot(20)       15        5     2036   1646.4    321.5   1557.4   472.00      0.0   1646.4      0.0   1388.0      0.0    163.7       95     98.5     98.5      100     0.000     0.000     0.000     0.000      132        0        0        0       15        0        0    18.800       99     30.0    5.640     2.15       29        9     2036  1206_RCP85_rainfed_15May_loam.PRM
  Tot(21)       15        5     2037   2112.3    332.5   1558.0   476.00      0.0   2112.3      0.0   1843.8      0.0    168.6       98    102.3    102.3       98     0.000     0.000     0.000     0.000      143        0        0        0       21        0        2    18.498       97     30.0    5.549     2.06       11       10     2037  1206_RCP85_rainfed_15May_loam.PRM
  Tot(22)       15        5     2038   1751.6    335.5   1557.4   481.00      0.0   1751.6      0.0   1488.3      0.0    167.5       85     98.0     98.0      100     0.000     0.000     0.000     0.000      139        0        0        0       20        0        0    18.751       99     30.0    5.625     2.12        7       10     2038  1206_RCP85_rainfed_15May_loam.PRM
  Tot(23)       15        5     2039   1296.0    369.0   1563.3   485.00      0.0   1296.0      0.0   1008.5      0.0    172.0       77    108.3    108.3      100     0.000     0.000     0.000     0.000      125        0        0        0       12        1        0    18.454       99     30.0    5.536     1.99       24        9     2039  1206_RCP85_rainfed_15May_loam.PRM
  Tot(24)       15        5     2040   1588.7    338.8   1558.3   489.00      0.0   1588.7      0.0   1345.0      0.0    170.5       89     86.7     86.7      100     0.000     0.000     0.000     0.000      138        0        0        0       19        0        1    18.863       99     30.0    5.659     2.21        5       10     2040  1206_RCP85_rainfed_15May_loam.PRM
  Tot(25)       15        5     2041   1464.3    364.7   1564.3   494.00      0.0   1464.3      0.0   1201.4      0.0    175.7       82    101.5    101.5      100     0.000     0.000     0.000     0.000      127        0        0        0       12        0        0    18.738       99     30.0    5.621     2.04       25        9     2041  1206_RCP85_rainfed_15May_loam.PRM
  Tot(26)       15        5     2042   1010.0    359.1   1558.1   499.00      0.0   1010.0      0.0    735.4      0.0    182.6       82    100.0    100.0      100     0.000     0.000     0.000     0.000      130        0        0        0       15        0        0    18.749       99     30.0    5.625     2.01       28        9     2042  1206_RCP85_rainfed_15May_loam.PRM
  Tot(27)       15        5     2043   2060.5    319.6   1559.4   504.00      0.0   2060.5      0.0   1801.1      0.0    167.4       95     89.8     89.8       99     0.000     0.000     0.000     0.000      140        0        0        0       20        0        1    18.773       98     30.0    5.632     2.21        8       10     2043  1206_RCP85_rainfed_15May_loam.PRM
  Tot(28)       15        5     2044   1836.7    320.5   1562.9   508.00      0.0   1836.7      0.0   1594.6      0.0    161.8       95     91.2     91.2       97     0.000     0.000     0.000     0.000      139        0        0        0       19        0        2    18.391       96     30.0    5.517     2.19        7       10     2044  1206_RCP85_rainfed_15May_loam.PRM
  Tot(29)       15        5     2045   1201.3    344.4   1557.3   513.00      0.0   1201.3      0.0    935.0      0.0    160.9       86    113.6    113.6      100     0.000     0.000     0.000     0.000      130        0        0        0       14        0        0    18.848       99     30.0    5.654     2.06       26        9     2045  1206_RCP85_rainfed_15May_loam.PRM
  Tot(30)       15        5     2046   1635.3    359.6   1558.9   519.00      0.0   1635.3      0.0   1428.3      0.0    122.5       51     88.4     88.4       99     0.000     0.000     0.000     0.000      122        0        0        0       12        4        1    17.267       92     30.0    5.180     2.48       19        9     2046  1206_RCP85_rainfed_15May_loam.PRM
  Tot(31)       15        5     2047   1478.5    337.8   1563.7   524.00      0.0   1478.5      0.0   1238.3      0.0    149.9       69     90.7     90.7      100     0.000     0.000     0.000     0.000      126        0        0        0       14        2        0    18.013       96     30.0    5.404     2.27       24        9     2047  1206_RCP85_rainfed_15May_loam.PRM
  Tot(32)       15        5     2048   1731.9    303.1   1560.4   529.00      0.0   1731.9      0.0   1483.9      0.0    161.3       96     85.6     85.6      100     0.000     0.000     0.000     0.000      140        0        0        0       21        0        0    19.085       99     30.0    5.726     2.33        8       10     2048  1206_RCP85_rainfed_15May_loam.PRM
  Tot(33)       15        5     2049   1439.1    312.7   1561.5   535.00      0.0   1439.1      0.0   1187.1      0.0    171.9       97     89.6     89.6      100     0.000     0.000     0.000     0.000      132        0        0        0       15        0        0    18.989       99     30.0    5.697     2.20       30        9     2049  1206_RCP85_rainfed_15May_loam.PRM
  Tot(34)       15        5     2050   2185.4    349.8   1557.6   541.00      0.0   2185.4      0.0   1899.2      0.0    178.7       89    103.3    103.3       99     0.000     0.000     0.000     0.000      129        0        0        0       14        0        1    18.256       97     30.0    5.477     1.95       27        9     2050  1206_RCP85_rainfed_15May_loam.PRM
  Tot(35)       15        5     2051   1070.6    359.0   1566.4   546.00      0.0   1070.6      0.0    842.6      0.0    134.6       57     92.8     92.8      100     0.000     0.000     0.000     0.000      124        0        0        0       12        3        0    17.872       95     30.0    5.362     2.38       21        9     2051  1206_RCP85_rainfed_15May_loam.PRM
  Tot(36)       15        5     2052   1738.6    377.6   1558.5   552.00      0.0   1738.6      0.0   1503.7      0.0    146.6       59     99.1     99.1      100     0.000     0.000     0.000     0.000      120        0        0        0       10        4        0    17.743       95     30.0    5.323     2.19       18        9     2052  1206_RCP85_rainfed_15May_loam.PRM
  Tot(37)       15        5     2053   1175.4    348.0   1558.3   558.00      0.0   1175.4      0.0    887.4      0.0    180.7       87     95.6     95.6      100     0.000     0.000     0.000     0.000      125        0        0        0       11        0        0    18.888       99     30.0    5.666     2.06       23        9     2053  1206_RCP85_rainfed_15May_loam.PRM
  Tot(38)       15        5     2054   1849.9    311.8   1560.0   564.00      0.0   1849.9      0.0   1601.3      0.0    171.4       93     84.0     84.0       99     0.000     0.000     0.000     0.000      130        0        0        0       15        0        1    18.880       98     30.0    5.664     2.23       28        9     2054  1206_RCP85_rainfed_15May_loam.PRM
  Tot(39)       15        5     2055   1180.0    313.0   1559.5   571.00      0.0   1180.0      0.0    921.5      0.0    159.6       86     97.4     97.4      100     0.000     0.000     0.000     0.000      122        0        0        0       11        0        0    18.640       99     30.0    5.592     2.18       19        9     2055  1206_RCP85_rainfed_15May_loam.PRM
  Tot(40)       15        5     2056   1769.7    324.0   1565.1   577.00      0.0   1769.7      0.0   1532.7      0.0    155.4       83     90.2     90.2       99     0.000     0.000     0.000     0.000      128        0        0        0       13        1        3    18.654       98     30.0    5.596     2.30       25        9     2056  1206_RCP85_rainfed_15May_loam.PRM
  Tot(41)       15        5     2057   1804.3    297.8   1559.6   583.00      0.0   1804.3      0.0   1571.6      0.0    137.1       77     87.4     87.4      100     0.000     0.000     0.000     0.000      121        0        0        0       10        1        0    18.418       97     30.0    5.525     2.47       18        9     2057  1206_RCP85_rainfed_15May_loam.PRM
  Tot(42)       15        5     2058   1685.3    323.0   1560.4   590.00      0.0   1685.3      0.0   1429.4      0.0    163.5       96     99.4     99.4       99     0.000     0.000     0.000     0.000      128        0        0        0       13        0        1    18.688       98     30.0    5.606     2.15       26        9     2058  1206_RCP85_rainfed_15May_loam.PRM
  Tot(43)       15        5     2059   2021.6    336.3   1566.7   597.00      0.0   2021.6      0.0   1783.6      0.0    172.7       86     81.8     81.8       99     0.000     0.000     0.000     0.000      123        0        0        0       11        0        1    18.632       98     30.0    5.590     2.21       20        9     2059  1206_RCP85_rainfed_15May_loam.PRM
  Tot(44)       15        5     2060   1996.6    333.9   1565.2   604.00      0.0   1996.6      0.0   1789.8      0.0    130.2       58     75.5     75.5       97     0.000     0.000     0.000     0.000      125        0        0        0       13        2        3    17.309       91     30.0    5.193     2.54       23        9     2060  1206_RCP85_rainfed_15May_loam.PRM
  Tot(45)       15        5     2061   1466.4    327.6   1560.2   611.00      0.0   1466.4      0.0   1234.3      0.0    149.9       76     86.7     86.7      100     0.000     0.000     0.000     0.000      125        0        0        0       13        1        0    18.712       98     30.0    5.614     2.40       23        9     2061  1206_RCP85_rainfed_15May_loam.PRM
  Tot(46)       15        5     2062   1495.9    320.4   1557.7   618.00      0.0   1495.9      0.0   1237.8      0.0    168.3       84     88.9     88.9       99     0.000     0.000     0.000     0.000      122        0        0        0       11        0        1    18.496       97     30.0    5.549     2.18       20        9     2062  1206_RCP85_rainfed_15May_loam.PRM
  Tot(47)       15        5     2063   1644.9    295.2   1565.5   625.00      0.0   1644.9      0.0   1393.8      0.0    151.1       99     93.1     93.1      100     0.000     0.000     0.000     0.000      126        0        0        0       12        0        0    18.886       99     30.0    5.666     2.33       25        9     2063  1206_RCP85_rainfed_15May_loam.PRM
  Tot(48)       15        5     2064   1337.5    345.2   1559.1   632.00      0.0   1337.5      0.0   1090.4      0.0    135.2       64     96.0     96.0      100     0.000     0.000     0.000     0.000      117        0        0        0        9        2        0    18.251       96     30.0    5.475     2.38       15        9     2064  1206_RCP85_rainfed_15May_loam.PRM
  Tot(49)       15        5     2065   1711.9    288.5   1566.0   639.00      0.0   1711.9      0.0   1475.9      0.0    150.0       91     85.0     85.0      100     0.000     0.000     0.000     0.000      130        0        0        0       14        0        0    18.962       99     30.0    5.689     2.43       28        9     2065  1206_RCP85_rainfed_15May_loam.PRM
  Tot(50)       15        5     2066   1864.9    325.0   1559.2   647.00      0.0   1864.9      0.0   1628.5      0.0    153.8       81     90.5     90.5       98     0.000     0.000     0.000     0.000      121        0        0        0       11        1        2    18.258       96     30.0    5.477     2.26       19        9     2066  1206_RCP85_rainfed_15May_loam.PRM
  Tot(51)       15        5     2067   1909.7    313.3   1558.8   654.00      0.0   1909.7      0.0   1666.5      0.0    156.3       88     90.4     90.4       99     0.000     0.000     0.000     0.000      116        0        0        0        8        0        2    18.355       97     30.0    5.506     2.26       14        9     2067  1206_RCP85_rainfed_15May_loam.PRM
  Tot(52)       15        5     2068   1750.3    303.2   1558.2   662.00      0.0   1750.3      0.0   1512.4      0.0    145.6       89     95.0     95.0       99     0.000     0.000     0.000     0.000      124        0        0        0       12        0        1    18.820       98     30.0    5.646     2.35       22        9     2068  1206_RCP85_rainfed_15May_loam.PRM
  Tot(53)       15        5     2069   1670.2    298.6   1560.5   669.00      0.0   1670.2      0.0   1414.9      0.0    150.4       90     97.1     97.1       99     0.000     0.000     0.000     0.000      118        0        0        0        9        0        1    18.497       98     30.0    5.549     2.26       16        9     2069  1206_RCP85_rainfed_15May_loam.PRM
  Tot(54)       15        5     2070   1773.5    296.2   1559.2   677.00      0.0   1773.5      0.0   1521.3      0.0    157.1       98     92.1     92.1      100     0.000     0.000     0.000     0.000      120        0        0        0        9        0        0    18.932       99     30.0    5.680     2.31       18        9     2070  1206_RCP85_rainfed_15May_loam.PRM
  Tot(55)       15        5     2071   1698.8    282.6   1564.3   685.00      0.0   1698.8      0.0   1470.7      0.0    146.3       95     84.7     84.7       99     0.000     0.000     0.000     0.000      125        0        0        0       11        0        1    18.950       99     30.0    5.685     2.48       23        9     2071  1206_RCP85_rainfed_15May_loam.PRM
  Tot(56)       15        5     2072   1848.7    284.7   1564.4   693.00      0.0   1848.7      0.0   1624.3      0.0    148.9       98     81.4     81.4       99     0.000     0.000     0.000     0.000      120        0        0        0        9        0        1    18.794       99     30.0    5.638     2.48       18        9     2072  1206_RCP85_rainfed_15May_loam.PRM
  Tot(57)       15        5     2073   1228.5    348.9   1561.9   701.00      0.0   1228.5      0.0   1014.2      0.0    125.3       55     86.7     86.7      100     0.000     0.000     0.000     0.000      113        0        0        0        8        4        0    17.671       95     30.0    5.301     2.52       10        9     2073  1206_RCP85_rainfed_15May_loam.PRM
  Tot(58)       15        5     2074   1363.5    350.5   1566.8   709.00      0.0   1363.5      0.0   1073.9      0.0    193.4       96    100.2    100.2      100     0.000     0.000     0.000     0.000      117        0        0        0        8        0        0    18.661       99     30.0    5.598     1.92       15        9     2074  1206_RCP85_rainfed_15May_loam.PRM
  Tot(59)       15        5     2075   1980.0    336.6   1562.8   717.00      0.0   1980.0      0.0   1700.5      0.0    168.0       85    102.7    102.7       97     0.000     0.000     0.000     0.000      112        0        0        0        7        1        4    17.391       93     30.0    5.217     1.94       10        9     2075  1206_RCP85_rainfed_15May_loam.PRM
  Tot(60)       15        5     2076   1921.0    250.4   1559.7   725.00      0.0   1921.0      0.0   1713.6      0.0    128.1       99     78.0     78.0      100     0.000     0.000     0.000     0.000      130        0        0        0       14        0        0    19.271       99     30.0    5.781     2.83       28        9     2076  1206_RCP85_rainfed_15May_loam.PRM
  Tot(61)       15        5     2077   1427.0    284.7   1566.6   733.00      0.0   1427.0      0.0   1216.1      0.0    136.4       82     82.6     82.6      100     0.000     0.000     0.000     0.000      119        0        0        0        9        0        1    18.553       99     30.0    5.566     2.56       17        9     2077  1206_RCP85_rainfed_15May_loam.PRM
  Tot(62)       15        5     2078   2225.7    264.1   1560.6   742.00      0.0   2225.7      0.0   2023.6      0.0    131.1       86     77.1     77.1       99     0.000     0.000     0.000     0.000      119        0        0        0        9        0        1    18.547       98     30.0    5.564     2.70       16        9     2078  1206_RCP85_rainfed_15May_loam.PRM
  Tot(63)       15        5     2079   1401.6    338.0   1568.2   750.00      0.0   1401.6      0.0   1140.1      0.0    140.2       72     96.6     96.6      100     0.000     0.000     0.000     0.000      117        0        0        0        8        1        1    18.331       98     30.0    5.499     2.34       14        9     2079  1206_RCP85_rainfed_15May_loam.PRM
  Tot(64)       15        5     2080   1755.9    304.3   1560.0   758.00      0.0   1755.9      0.0   1525.1      0.0    153.7       88     89.2     89.2       97     0.000     0.000     0.000     0.000      112        0        0        0        6        0        3    17.728       95     30.0    5.318     2.21       10        9     2080  1206_RCP85_rainfed_15May_loam.PRM
  Tot(65)       15        5     2081   1921.8    270.9   1558.7   767.00      0.0   1921.8      0.0   1683.2      0.0    145.3       98     84.2     84.2       99     0.000     0.000     0.000     0.000      117        0        0        0        8        0        1    18.589       99     30.0    5.577     2.44       14        9     2081  1206_RCP85_rainfed_15May_loam.PRM
  Tot(66)       15        5     2082   1703.7    274.1   1566.2   775.00      0.0   1703.7      0.0   1487.9      0.0    132.7       96     88.5     88.5      100     0.000     0.000     0.000     0.000      123        0        0        0       10        0        0    18.903       99     30.0    5.671     2.59       22        9     2082  1206_RCP85_rainfed_15May_loam.PRM
  Tot(67)       15        5     2083   1391.9    337.9   1557.8   784.00      0.0   1391.9      0.0   1142.6      0.0    168.3       80     92.6     92.6       99     0.000     0.000     0.000     0.000      110        0        0        0        6        1        1    17.911       97     30.0    5.373     2.08        7        9     2083  1206_RCP85_rainfed_15May_loam.PRM
  Tot(68)       15        5     2084   1766.2    294.6   1563.7   792.00      0.0   1766.2      0.0   1509.9      0.0    173.2       95     85.6     85.6       98     0.000     0.000     0.000     0.000      113        0        0        0        7        0        1    17.913       97     30.0    5.374     2.10       10        9     2084  1206_RCP85_rainfed_15May_loam.PRM
  Tot(69)       15        5     2085   1767.2    288.0   1568.3   801.00      0.0   1767.2      0.0   1560.6      0.0    130.6       80     81.8     81.8       99     0.000     0.000     0.000     0.000      120        0        0        0       10        0        1    18.410       98     30.0    5.523     2.64       17        9     2085  1206_RCP85_rainfed_15May_loam.PRM
  Tot(70)       15        5     2086   1202.6    279.0   1566.5   810.00      0.0   1202.6      0.0    974.6      0.0    146.5       87     78.8     78.8      100     0.000     0.000     0.000     0.000      112        0        0        0        6        0        0    18.285       99     30.0    5.486     2.45       10        9     2086  1206_RCP85_rainfed_15May_loam.PRM
  Tot(71)       15        5     2087   1187.5    283.8   1568.2   818.00      0.0   1187.5      0.0    947.2      0.0    148.5       84     81.6     81.6      100     0.000     0.000     0.000     0.000      109        0        0        0        5        1        0    17.935       99     30.0    5.380     2.35        6        9     2087  1206_RCP85_rainfed_15May_loam.PRM
  Tot(72)       15        5     2088   2082.8    291.7   1564.7   827.00      0.0   2082.8      0.0   1840.4      0.0    152.8       90     79.5     79.5       97     0.000     0.000     0.000     0.000      112        0        0        0        6        0        3    17.593       95     30.0    5.278     2.29       11        9     2088  1206_RCP85_rainfed_15May_loam.PRM
  Tot(73)       15        5     2089   1526.9    257.1   1562.6   836.00      0.0   1526.9      0.0   1286.4      0.0    136.7       97     80.8     80.8      100     0.000     0.000     0.000     0.000      113        0        0        0        6        0        0    18.322       99     30.0    5.497     2.55       10        9     2089  1206_RCP85_rainfed_15May_loam.PRM
  Tot(74)       15        5     2090   1461.9    281.8   1559.1   845.00      0.0   1461.9      0.0   1219.6      0.0    131.3       78     81.2     81.2       99     0.000     0.000     0.000     0.000      112        0        0        0        6        0        1    18.335       98     30.0    5.501     2.60        9        9     2090  1206_RCP85_rainfed_15May_loam.PRM
  Tot(75)       15        5     2091   1483.7    300.1   1559.6   854.00      0.0   1483.7      0.0   1290.5      0.0    120.9       58     71.8     71.8       99     0.000     0.000     0.000     0.000      106        0        0        0        5        3        1    17.017       94     30.0    5.105     2.68        3        9     2091  1206_RCP85_rainfed_15May_loam.PRM
  Tot(76)       15        5     2092   1811.2    307.4   1557.4   863.00      0.0   1811.2      0.0   1592.9      0.0    136.4       77     85.0     85.0       98     0.000     0.000     0.000     0.000      113        0        0        0        6        1        3    17.620       95     30.0    5.286     2.39        9        9     2092  1206_RCP85_rainfed_15May_loam.PRM
  Tot(77)       15        5     2093   1452.6    264.0   1568.7   872.00      0.0   1452.6      0.0   1225.9      0.0    135.3       97     89.8     89.8      100     0.000     0.000     0.000     0.000      109        0        0        0        5        0        0    18.072       99     30.0    5.421     2.44        6        9     2093  1206_RCP85_rainfed_15May_loam.PRM
  Tot(78)       15        5     2094   1426.8    252.3   1565.3   881.00      0.0   1426.8      0.0   1210.4      0.0    134.6       98     77.2     77.2      100     0.000     0.000     0.000     0.000      117        0        0        0        9        0        0    18.445       99     30.0    5.534     2.63       14        9     2094  1206_RCP85_rainfed_15May_loam.PRM
  Tot(79)       15        5     2095   1743.4    255.8   1560.1   890.00      0.0   1743.4      0.0   1535.4      0.0    130.6       88     75.9     75.9      100     0.000     0.000     0.000     0.000      112        0        0        0        6        0        1    18.215       99     30.0    5.464     2.67        9        9     2095  1206_RCP85_rainfed_15May_loam.PRM
  Tot(80)       15        5     2096   1382.5    307.2   1565.4   899.00      0.0   1382.5      0.0   1168.6      0.0    137.1       73     83.7     83.7      100     0.000     0.000     0.000     0.000      110        0        0        0        5        1        1    17.917       98     30.0    5.375     2.46        8        9     2096  1206_RCP85_rainfed_15May_loam.PRM
  Tot(81)       15        5     2097   1605.5    253.2   1565.0   908.00      0.0   1605.5      0.0   1396.5      0.0    129.4       97     78.7     78.7       99     0.000     0.000     0.000     0.000      113        0        0        0        6        0        2    18.025       98     30.0    5.407     2.63       10        9     2097  1206_RCP85_rainfed_15May_loam.PRM
  Tot(82)       15        5     2098   1506.4    250.4   1564.0   917.00      0.0   1506.4      0.0   1280.1      0.0    127.8       91     78.8     78.8      100     0.000     0.000     0.000     0.000      111        0        0        0        6        0        0    18.143       99     30.0    5.443     2.64        9        9     2098  1206_RCP85_rainfed_15May_loam.PRM
  Tot(83)       15        5     2099   2115.5    266.4   1566.9   927.00      0.0   2115.5      0.0   1891.9      0.0    133.7       99     87.2     87.2       99     0.000     0.000     0.000     0.000      112        0        0        0        6        0        7    17.629       98     30.0    5.289     2.42        9        9     2099  1206_RCP85_rainfed_15May_loam.PRM
