AquaCrop 6.0 (March 2017) - Output created on (date) : 07/06/2021   at (time) : 19:33:03

    RunNr     Day1   Month1    Year1     Rain      ETo       GD     CO2      Irri   Infilt   Runoff    Drain   Upflow        E     E/Ex       Tr      TrW   Tr/Trx    SaltIn   SaltOut    SaltUp  SaltProf     Cycle   SaltStr  FertStr  WeedStr  TempStr   ExpStr   StoStr  BioMass  Brelative   HI     Yield     WPet     DayN   MonthN    YearN
                                           mm       mm    °C.day    ppm        mm       mm       mm       mm       mm       mm        %       mm       mm        %    ton/ha    ton/ha    ton/ha    ton/ha      days       %        %        %        %        %        %    ton/ha        %       %    ton/ha    kg/m3
   Tot(1)       15        4     2017   1203.2    445.7   1566.3   404.00      0.0   1203.2      0.0    902.2      0.0    155.8       53    140.9    140.9      100     0.000     0.000     0.000     0.000      123        0        0        0       10        8        0    16.672       93     30.0    5.002     1.69       23        8     2017  1206_RCP45_rainfed_15April_loam.PRM
   Tot(2)       15        4     2018   1641.6    431.2   1564.5   407.00      0.0   1641.6      0.0   1339.0      0.0    170.1       59    129.7    129.7      100     0.000     0.000     0.000     0.000      136        0        0        0       18        3        0    17.486       96     30.0    5.246     1.76        6        9     2018  1206_RCP45_rainfed_15April_loam.PRM
   Tot(3)       15        4     2019    944.1    469.5   1562.1   409.00      0.0    944.1      0.0    624.3      0.0    140.1       44    145.1    145.1       95     0.000     0.000     0.000     0.000      121        0        0        0       11       28        2    14.032       81     30.1    4.221     1.48       22        8     2019  1206_RCP45_rainfed_15April_loam.PRM
   Tot(4)       15        4     2020   1246.7    433.2   1564.5   411.00      0.0   1246.7      0.0    962.0      0.0    149.3       50    128.1    128.1      100     0.000     0.000     0.000     0.000      129        0        0        0       15        5       -0    16.850       93     30.0    5.055     1.83       31        8     2020  1206_RCP45_rainfed_15April_loam.PRM
   Tot(5)       15        4     2021   2148.2    343.9   1563.4   413.00      0.0   2148.2      0.0   1840.6      0.0    189.7       85     90.1     90.1       99     0.000     0.000     0.000     0.000      141        0        0        0       20        0        0    18.396       99     30.0    5.519     1.98       13        9     2021  1206_RCP45_rainfed_15April_loam.PRM
   Tot(6)       15        4     2022   1677.0    386.5   1561.9   416.00      0.0   1677.0      0.0   1371.4      0.0    181.1       72    113.2    113.2      100     0.000     0.000     0.000     0.000      138        0        0        0       19        1        0    18.193       98     30.0    5.458     1.86        7        9     2022  1206_RCP45_rainfed_15April_loam.PRM
   Tot(7)       15        4     2023   1564.7    381.2   1564.8   418.00      0.0   1564.7      0.0   1262.5      0.0    167.4       67    105.0    105.0       99     0.000     0.000     0.000     0.000      136        0        0        0       17        3        1    17.638       95     30.0    5.291     1.95        6        9     2023  1206_RCP45_rainfed_15April_loam.PRM
   Tot(8)       15        4     2024   1003.7    446.0   1561.2   420.00      0.0   1003.7      0.0    689.4      0.0    170.0       59    134.0    134.0      100     0.000     0.000     0.000     0.000      130        0        0        0       14        5        0    17.480       95     30.0    5.244     1.73       31        8     2024  1206_RCP45_rainfed_15April_loam.PRM
   Tot(9)       15        4     2025   1387.6    474.2   1558.5   423.00      0.0   1387.6      0.0   1150.6      0.0    105.4       29    112.8    112.8      100     0.000     0.000     0.000     0.000      124        0        0        0       12       15        0    15.068       83     30.0    4.520     2.08       23        8     2025  1206_RCP45_rainfed_15April_loam.PRM
  Tot(10)       15        4     2026   1732.4    420.1   1559.4   425.00      0.0   1732.4      0.0   1415.6      0.0    167.0       61    130.0    130.0      100     0.000     0.000     0.000     0.000      129        0        0        0       15        2       -0    17.866       98     30.0    5.360     1.81       29        8     2026  1206_RCP45_rainfed_15April_loam.PRM
  Tot(11)       15        4     2027   1387.0    435.3   1567.1   428.00      0.0   1387.0      0.0   1084.6      0.0    118.8       42    149.2    149.2       94     0.000     0.000     0.000     0.000      118        0        0        0        9       15        1    15.677       89     30.0    4.703     1.76       17        8     2027  1206_RCP45_rainfed_15April_loam.PRM
  Tot(12)       15        4     2028   1448.2    411.4   1557.9   430.00      0.0   1448.2      0.0   1116.5      0.0    184.4       71    124.7    124.7      100     0.000     0.000     0.000     0.000      132        0        0        0       15        2        0    18.023       97     30.0    5.407     1.75        3        9     2028  1206_RCP45_rainfed_15April_loam.PRM
  Tot(13)       15        4     2029   1450.9    459.0   1557.2   433.00      0.0   1450.9      0.0   1147.4      0.0    150.7       51    158.0    158.0      100     0.000     0.000     0.000     0.000      124        0        0        0       12        6        0    16.583       94     30.1    4.985     1.61       23        8     2029  1206_RCP45_rainfed_15April_loam.PRM
  Tot(14)       15        4     2030   1566.2    399.1   1566.5   435.00      0.0   1566.2      0.0   1262.2      0.0    193.0       74    115.3    115.3      100     0.000     0.000     0.000     0.000      135        0        0        0       17        1        0    18.346       99     30.0    5.504     1.80        4        9     2030  1206_RCP45_rainfed_15April_loam.PRM
  Tot(15)       15        4     2031   1318.1    490.5   1558.3   438.00      0.0   1318.1      0.0    961.6      0.0    180.4       56    149.8    149.8       92     0.000     0.000     0.000     0.000      126        0        0        0       15       18        2    15.322       87     30.0    4.597     1.40       26        8     2031  1206_RCP45_rainfed_15April_loam.PRM
  Tot(16)       15        4     2032   1541.8    423.0   1562.3   440.00      0.0   1541.8      0.0   1243.4      0.0    177.0       64    129.2    129.2      100     0.000     0.000     0.000     0.000      127        0        0        0       13        4        0    17.451       96     30.0    5.235     1.73       28        8     2032  1206_RCP45_rainfed_15April_loam.PRM
  Tot(17)       15        4     2033   1274.5    417.9   1563.4   443.00      0.0   1274.5      0.0    989.0      0.0    163.0       59    124.0    124.0      100     0.000     0.000     0.000     0.000      126        0        0        0       12        3        0    17.551       95     30.0    5.265     1.85       25        8     2033  1206_RCP45_rainfed_15April_loam.PRM
  Tot(18)       15        4     2034   1186.7    393.9   1565.2   445.00      0.0   1186.7      0.0    855.5      0.0    212.9       86    112.0    112.0      100     0.000     0.000     0.000     0.000      138        0        0        0       18        0        0    18.586       99     30.0    5.576     1.73        9        9     2034  1206_RCP45_rainfed_15April_loam.PRM
  Tot(19)       15        4     2035   1361.0    415.6   1558.3   448.00      0.0   1361.0      0.0   1019.1      0.0    178.3       70    150.9    150.9      100     0.000     0.000     0.000     0.000      122        0        0        0       11        3        0    17.470       97     30.0    5.241     1.60       23        8     2035  1206_RCP45_rainfed_15April_loam.PRM
  Tot(20)       15        4     2036   1809.9    364.3   1557.9   450.00      0.0   1809.9      0.0   1523.6      0.0    185.3       81    106.9    106.9      100     0.000     0.000     0.000     0.000      132        0        0        0       15        1        0    18.427       98     30.0    5.528     1.91        1        9     2036  1206_RCP45_rainfed_15April_loam.PRM
  Tot(21)       15        4     2037   1164.3    431.7   1557.5   453.00      0.0   1164.3      0.0    898.3      0.0    159.6       53    110.2    110.2      100     0.000     0.000     0.000     0.000      129        0        0        0       14        6       -0    17.288       93     30.0    5.186     1.94       30        8     2037  1206_RCP45_rainfed_15April_loam.PRM
  Tot(22)       15        4     2038   1881.7    398.7   1565.8   456.00      0.0   1881.7      0.0   1585.8      0.0    164.7       62    118.8    118.8      100     0.000     0.000     0.000     0.000      134        0        0        0       16        3        0    17.615       95     30.0    5.285     1.87        3        9     2038  1206_RCP45_rainfed_15April_loam.PRM
  Tot(23)       15        4     2039   1697.9    333.5   1558.7   458.00      0.0   1697.9      0.0   1440.3      0.0    156.7       70     93.3     93.3      100     0.000     0.000     0.000     0.000      131        0        0        0       15        2        0    18.330       97     30.0    5.499     2.21        1        9     2039  1206_RCP45_rainfed_15April_loam.PRM
  Tot(24)       15        4     2040   1499.7    388.2   1559.8   461.00      0.0   1499.7      0.0   1187.1      0.0    168.1       67    122.7    122.7      100     0.000     0.000     0.000     0.000      124        0        0        0       12        4        0    17.591       96     30.0    5.277     1.82       25        8     2040  1206_RCP45_rainfed_15April_loam.PRM
  Tot(25)       15        4     2041   1187.2    469.6   1560.9   463.00      0.0   1187.2      0.0    909.1      0.0    131.6       41    135.6    135.6       91     0.000     0.000     0.000     0.000      116        0        0        0        9       25        2    13.871       79     30.0    4.163     1.57       16        8     2041  1206_RCP45_rainfed_15April_loam.PRM
  Tot(26)       15        4     2042    906.2    463.3   1562.5   466.00      0.0    906.2      0.0    594.5      0.0    168.9       51    129.1    129.1       95     0.000     0.000     0.000     0.000      120        0        0        0       10       33        2    13.197       74     30.0    3.959     1.34       21        8     2042  1206_RCP45_rainfed_15April_loam.PRM
  Tot(27)       15        4     2043   1524.1    410.7   1561.5   469.00      0.0   1524.1      0.0   1241.7      0.0    138.5       48    114.8    114.8      100     0.000     0.000     0.000     0.000      123        0        0        0       11        6       -0    17.064       92     30.0    5.119     2.03       23        8     2043  1206_RCP45_rainfed_15April_loam.PRM
  Tot(28)       15        4     2044   1943.8    365.2   1558.1   471.00      0.0   1943.8      0.0   1678.3      0.0    163.0       65    100.9    100.9      100     0.000     0.000     0.000     0.000      124        0        0        0       11        3        0    17.822       95     30.0    5.347     2.05       24        8     2044  1206_RCP45_rainfed_15April_loam.PRM
  Tot(29)       15        4     2045   1571.0    380.6   1557.1   474.00      0.0   1571.0      0.0   1252.0      0.0    199.7       81    108.4    108.4      100     0.000     0.000     0.000     0.000      137        0        0        0       17        0        0    18.667       99     30.0    5.600     1.82        6        9     2045  1206_RCP45_rainfed_15April_loam.PRM
  Tot(30)       15        4     2046   2008.4    377.7   1563.9   476.00      0.0   2008.4      0.0   1747.2      0.0    167.9       64     94.3     94.3      100     0.000     0.000     0.000     0.000      134        0        0        0       17        1        0    18.539       98     30.0    5.562     2.14        4        9     2046  1206_RCP45_rainfed_15April_loam.PRM
  Tot(31)       15        4     2047   1138.4    362.2   1559.5   479.00      0.0   1138.4      0.0    851.1      0.0    176.1       76    109.0    109.0      100     0.000     0.000     0.000     0.000      128        0        0        0       13        1        0    18.561       99     30.0    5.568     1.96       29        8     2047  1206_RCP45_rainfed_15April_loam.PRM
  Tot(32)       15        4     2048   1123.3    413.2   1560.7   481.00      0.0   1123.3      0.0    852.4      0.0    145.4       52    116.4    116.4      100     0.000     0.000     0.000     0.000      126        0        0        0       13        5        0    17.431       93     30.0    5.229     2.00       26        8     2048  1206_RCP45_rainfed_15April_loam.PRM
  Tot(33)       15        4     2049   1436.4    437.1   1566.4   484.00      0.0   1436.4      0.0   1152.3      0.0    155.1       52    132.3    132.3       96     0.000     0.000     0.000     0.000      120        0        0        0       10       29        2    14.555       81     30.1    4.379     1.53       19        8     2049  1206_RCP45_rainfed_15April_loam.PRM
  Tot(34)       15        4     2050   1673.7    332.2   1562.6   487.00      0.0   1673.7      0.0   1353.3      0.0    190.7       90     98.6     98.6      100     0.000     0.000     0.000     0.000      130        0        0        0       14        0       -0    18.715       99     30.0    5.614     1.95       31        8     2050  1206_RCP45_rainfed_15April_loam.PRM
  Tot(35)       15        4     2051   1578.8    418.7   1561.8   489.00      0.0   1578.8      0.0   1344.8      0.0    135.3       45    107.1    107.1      100     0.000     0.000     0.000     0.000      120        0        0        0       10        6       -0    16.846       92     30.0    5.054     2.10       19        8     2051  1206_RCP45_rainfed_15April_loam.PRM
  Tot(36)       15        4     2052   1818.8    424.7   1564.5   492.00      0.0   1818.8      0.0   1534.2      0.0    159.3       55    127.1    127.1      100     0.000     0.000     0.000     0.000      121        0        0        0       11        8        1    16.987       94     30.0    5.096     1.80       21        8     2052  1206_RCP45_rainfed_15April_loam.PRM
  Tot(37)       15        4     2053   1619.5    395.8   1559.7   494.00      0.0   1619.5      0.0   1367.3      0.0    149.9       54    107.0    107.0      100     0.000     0.000     0.000     0.000      127        0        0        0       13        4       -0    17.589       94     30.0    5.277     2.07       27        8     2053  1206_RCP45_rainfed_15April_loam.PRM
  Tot(38)       15        4     2054   1979.1    384.1   1557.9   496.00      0.0   1979.1      0.0   1709.4      0.0    151.5       57    109.7    109.7      100     0.000     0.000     0.000     0.000      124        0        0        0       12        5        0    17.564       95     30.0    5.269     2.03       24        8     2054  1206_RCP45_rainfed_15April_loam.PRM
  Tot(39)       15        4     2055   1263.2    414.0   1559.1   498.00      0.0   1263.2      0.0    954.0      0.0    163.3       62    135.2    135.2       99     0.000     0.000     0.000     0.000      121        0        0        0       10        3        1    17.233       94     30.0    5.170     1.74       21        8     2055  1206_RCP45_rainfed_15April_loam.PRM
  Tot(40)       15        4     2056   1231.1    409.0   1558.7   501.00      0.0   1231.1      0.0    927.3      0.0    176.6       68    125.5    125.5      100     0.000     0.000     0.000     0.000      129        0        0        0       14        2        0    18.454       98     30.0    5.536     1.84       28        8     2056  1206_RCP45_rainfed_15April_loam.PRM
  Tot(41)       15        4     2057   1422.0    416.6   1561.2   503.00      0.0   1422.0      0.0   1205.1      0.0    113.5       38    102.7    102.7      100     0.000     0.000     0.000     0.000      124        0        0        0       13        5       -0    17.299       93     30.0    5.190     2.41       23        8     2057  1206_RCP45_rainfed_15April_loam.PRM
  Tot(42)       15        4     2058   1526.8    356.9   1563.6   505.00      0.0   1526.8      0.0   1248.9      0.0    175.3       72     93.4     93.4      100     0.000     0.000     0.000     0.000      130        0        0        0       13        1        0    18.668       98     30.0    5.600     2.09        1        9     2058  1206_RCP45_rainfed_15April_loam.PRM
  Tot(43)       15        4     2059   1763.6    382.0   1564.5   507.00      0.0   1763.6      0.0   1468.8      0.0    197.1       77    102.4    102.4      100     0.000     0.000     0.000     0.000      134        0        0        0       17        1        0    18.603       98     30.0    5.581     1.87        3        9     2059  1206_RCP45_rainfed_15April_loam.PRM
  Tot(44)       15        4     2060   2042.7    341.2   1563.5   509.00      0.0   2042.7      0.0   1799.0      0.0    141.4       61     96.7     96.7       99     0.000     0.000     0.000     0.000      124        0        0        0       11        3        1    17.494       94     30.0    5.248     2.21       24        8     2060  1206_RCP45_rainfed_15April_loam.PRM
  Tot(45)       15        4     2061   1346.8    410.9   1558.5   511.00      0.0   1346.8      0.0   1046.4      0.0    151.4       54    120.5    120.5      100     0.000     0.000     0.000     0.000      124        0        0        0       12        8        0    17.137       93     30.0    5.141     1.90       24        8     2061  1206_RCP45_rainfed_15April_loam.PRM
  Tot(46)       15        4     2062   1573.7    376.9   1566.8   513.00      0.0   1573.7      0.0   1341.9      0.0    137.1       50     91.4     91.4      100     0.000     0.000     0.000     0.000      125        0        0        0       12        4        0    17.486       93     30.0    5.246     2.33       25        8     2062  1206_RCP45_rainfed_15April_loam.PRM
  Tot(47)       15        4     2063   1644.9    401.0   1563.7   514.00      0.0   1644.9      0.0   1383.7      0.0    124.9       43    103.4    103.4      100     0.000     0.000     0.000     0.000      120        0        0        0        9        7        0    16.892       91     30.0    5.068     2.23       19        8     2063  1206_RCP45_rainfed_15April_loam.PRM
  Tot(48)       15        4     2064   1770.6    390.0   1567.6   516.00      0.0   1770.6      0.0   1494.0      0.0    176.7       66    101.1    101.1       99     0.000     0.000     0.000     0.000      127        0        0        0       12        2        1    18.154       96     30.0    5.446     1.98       29        8     2064  1206_RCP45_rainfed_15April_loam.PRM
  Tot(49)       15        4     2065   1606.3    433.4   1558.7   518.00      0.0   1606.3      0.0   1294.5      0.0    137.5       50    152.9    152.9       97     0.000     0.000     0.000     0.000      115        0        0        0        8       16        1    16.148       91     30.0    4.844     1.68       14        8     2065  1206_RCP45_rainfed_15April_loam.PRM
  Tot(50)       15        4     2066   1678.4    348.8   1568.4   519.00      0.0   1678.4      0.0   1417.3      0.0    169.6       74     95.9     95.9      100     0.000     0.000     0.000     0.000      128        0        0        0       13        1        0    18.389       98     30.0    5.517     2.09       27        8     2066  1206_RCP45_rainfed_15April_loam.PRM
  Tot(51)       15        4     2067   2048.5    367.1   1566.1   520.00      0.0   2048.5      0.0   1788.8      0.0    137.6       58    116.4    116.4      100     0.000     0.000     0.000     0.000      126        0        0        0       12        3        0    17.775       95     30.0    5.333     2.12       26        8     2067  1206_RCP45_rainfed_15April_loam.PRM
  Tot(52)       15        4     2068   1129.4    429.8   1557.7   522.00      0.0   1129.4      0.0    896.3      0.0    131.7       45    106.9    106.9      100     0.000     0.000     0.000     0.000      122        0        0        0       11        6        0    16.985       92     30.0    5.095     2.16       21        8     2068  1206_RCP45_rainfed_15April_loam.PRM
  Tot(53)       15        4     2069   1543.3    370.0   1559.7   523.00      0.0   1543.3      0.0   1264.2      0.0    157.2       63     99.2     99.2      100     0.000     0.000     0.000     0.000      127        0        0        0       13        3        0    18.016       95     30.0    5.405     2.11       29        8     2069  1206_RCP45_rainfed_15April_loam.PRM
  Tot(54)       15        4     2070   1952.2    375.2   1567.2   524.00      0.0   1952.2      0.0   1644.7      0.0    203.3       84    102.9    102.9      100     0.000     0.000     0.000     0.000      127        0        0        0       13        1        0    18.600       99     30.0    5.580     1.84       27        8     2070  1206_RCP45_rainfed_15April_loam.PRM
  Tot(55)       15        4     2071   1201.5    384.2   1565.5   525.00      0.0   1201.5      0.0    935.8      0.0    148.6       58    109.0    109.0      100     0.000     0.000     0.000     0.000      123        0        0        0       10        2        0    17.983       96     30.0    5.395     2.11       21        8     2071  1206_RCP45_rainfed_15April_loam.PRM
  Tot(56)       15        4     2072   1513.4    364.1   1563.2   527.00      0.0   1513.4      0.0   1202.4      0.0    178.4       75    112.9    112.9      100     0.000     0.000     0.000     0.000      122        0        0        0       10        1        0    18.169       98     30.0    5.451     1.87       20        8     2072  1206_RCP45_rainfed_15April_loam.PRM
  Tot(57)       15        4     2073   1396.4    394.0   1567.6   527.00      0.0   1396.4      0.0   1137.1      0.0    132.0       48    108.6    108.6      100     0.000     0.000     0.000     0.000      117        0        0        0        8        4        0    17.154       94     30.0    5.146     2.16       18        8     2073  1206_RCP45_rainfed_15April_loam.PRM
  Tot(58)       15        4     2074   1740.9    316.1   1568.3   528.00      0.0   1740.9      0.0   1473.3      0.0    182.2       91     85.2     85.2      100     0.000     0.000     0.000     0.000      133        0        0        0       15        0        0    18.958       99     30.0    5.687     2.14        2        9     2074  1206_RCP45_rainfed_15April_loam.PRM
  Tot(59)       15        4     2075   1560.1    356.3   1564.6   529.00      0.0   1560.1      0.0   1278.9      0.0    167.2       77    113.4    113.4      100     0.000     0.000     0.000     0.000      122        0        0        0       10        1        0    18.260       98     30.0    5.478     1.96       21        8     2075  1206_RCP45_rainfed_15April_loam.PRM
  Tot(60)       15        4     2076   1317.8    363.3   1563.4   530.00      0.0   1317.8      0.0   1088.4      0.0    134.2       51     85.6     85.6      100     0.000     0.000     0.000     0.000      125        0        0        0       11        5        0    17.576       93     30.0    5.273     2.41       24        8     2076  1206_RCP45_rainfed_15April_loam.PRM
  Tot(61)       15        4     2077   1992.7    323.0   1564.3   530.00      0.0   1992.7      0.0   1693.4      0.0    176.2       88     93.9     93.9      100     0.000     0.000     0.000     0.000      126        0        0        0       12        0        0    18.778       99     30.0    5.633     2.10       25        8     2077  1206_RCP45_rainfed_15April_loam.PRM
  Tot(62)       15        4     2078   1793.2    366.2   1566.8   531.00      0.0   1793.2      0.0   1522.0      0.0    155.7       63    105.5    105.5      100     0.000     0.000     0.000     0.000      120        0        0        0        9        2        0    18.181       98     30.0    5.454     2.10       19        8     2078  1206_RCP45_rainfed_15April_loam.PRM
  Tot(63)       15        4     2079   1503.6    384.6   1564.8   531.00      0.0   1503.6      0.0   1219.1      0.0    169.1       64    112.3    112.3      100     0.000     0.000     0.000     0.000      119        0        0        0        9        5        0    17.421       95     30.0    5.226     1.88       19        8     2079  1206_RCP45_rainfed_15April_loam.PRM
  Tot(64)       15        4     2080   1758.6    387.2   1560.6   531.00      0.0   1758.6      0.0   1470.9      0.0    171.5       68    119.8    119.8      100     0.000     0.000     0.000     0.000      118        0        0        0        9        4        0    17.638       97     30.0    5.292     1.84       18        8     2080  1206_RCP45_rainfed_15April_loam.PRM
  Tot(65)       15        4     2081   1574.4    377.0   1565.2   531.00      0.0   1574.4      0.0   1294.0      0.0    136.7       52     95.2     95.2       99     0.000     0.000     0.000     0.000      121        0        0        0       10        3        1    17.688       94     30.0    5.306     2.30       20        8     2081  1206_RCP45_rainfed_15April_loam.PRM
  Tot(66)       15        4     2082   1772.3    381.1   1564.6   531.00      0.0   1772.3      0.0   1510.2      0.0    154.4       64    109.7    109.7      100     0.000     0.000     0.000     0.000      126        0        0        0       12        4        0    18.007       96     30.0    5.402     2.06       26        8     2082  1206_RCP45_rainfed_15April_loam.PRM
  Tot(67)       15        4     2083   1011.8    445.3   1558.4   532.00      0.0   1011.8      0.0    757.3      0.0    125.8       40    125.7    125.7      100     0.000     0.000     0.000     0.000      113        0        0        0        7       15        0    15.589       88     30.0    4.677     1.87       11        8     2083  1206_RCP45_rainfed_15April_loam.PRM
  Tot(68)       15        4     2084   1565.3    382.6   1558.3   532.00      0.0   1565.3      0.0   1289.0      0.0    137.3       54    111.3    111.3      100     0.000     0.000     0.000     0.000      118        0        0        0        9        4        0    17.586       94     30.0    5.276     2.13       18        8     2084  1206_RCP45_rainfed_15April_loam.PRM
  Tot(69)       15        4     2085   1753.2    347.3   1565.8   532.00      0.0   1753.2      0.0   1453.9      0.0    167.4       79    119.4    119.4      100     0.000     0.000     0.000     0.000      117        0        0        0        8        1        0    18.134       99     30.0    5.440     1.91       15        8     2085  1206_RCP45_rainfed_15April_loam.PRM
  Tot(70)       15        4     2086   1384.3    364.5   1564.8   532.00      0.0   1384.3      0.0   1121.8      0.0    141.8       59    106.5    106.5      100     0.000     0.000     0.000     0.000      119        0        0        0        9        5        0    17.630       95     30.0    5.289     2.14       17        8     2086  1206_RCP45_rainfed_15April_loam.PRM
  Tot(71)       15        4     2087   1628.9    358.0   1564.1   533.00      0.0   1628.9      0.0   1338.2      0.0    167.5       72    111.2    111.2      100     0.000     0.000     0.000     0.000      120        0        0        0        9        2        0    18.095       98     30.0    5.428     1.96       19        8     2087  1206_RCP45_rainfed_15April_loam.PRM
  Tot(72)       15        4     2088   1252.0    377.3   1564.5   533.00      0.0   1252.0      0.0   1067.1      0.0    102.7       37     85.6     85.6      100     0.000     0.000     0.000     0.000      120        0        0        0       11        8        0    16.793       90     30.0    5.038     2.72       18        8     2088  1206_RCP45_rainfed_15April_loam.PRM
  Tot(73)       15        4     2089   1472.4    378.9   1562.7   533.00      0.0   1472.4      0.0   1128.8      0.0    158.6       67    124.4    124.4      100     0.000     0.000     0.000     0.000      115        0        0        0        8        4        0    17.406       97     30.0    5.222     1.86       15        8     2089  1206_RCP45_rainfed_15April_loam.PRM
  Tot(74)       15        4     2090   1836.6    310.5   1560.3   534.00      0.0   1836.6      0.0   1580.5      0.0    158.6       79     86.6     86.6      100     0.000     0.000     0.000     0.000      126        0        0        0       13        1        0    18.562       98     30.0    5.568     2.28       25        8     2090  1206_RCP45_rainfed_15April_loam.PRM
  Tot(75)       15        4     2091   1688.1    390.3   1561.8   534.00      0.0   1688.1      0.0   1466.4      0.0    115.3       43    105.1    105.1      100     0.000     0.000     0.000     0.000      114        0        0        0        7        7        0    16.603       91     30.0    4.981     2.28       13        8     2091  1206_RCP45_rainfed_15April_loam.PRM
  Tot(76)       15        4     2092   1857.2    304.8   1565.1   535.00      0.0   1857.2      0.0   1614.7      0.0    169.3       89     79.5     79.5      100     0.000     0.000     0.000     0.000      130        0        0        0       13        0        0    19.090       99     30.0    5.727     2.32       29        8     2092  1206_RCP45_rainfed_15April_loam.PRM
  Tot(77)       15        4     2093   1220.6    373.5   1565.9   535.00      0.0   1220.6      0.0    953.7      0.0    135.4       55    117.6    117.6      100     0.000     0.000     0.000     0.000      117        0        0        0        8        3        0    17.564       95     30.0    5.269     2.09       17        8     2093  1206_RCP45_rainfed_15April_loam.PRM
  Tot(78)       15        4     2094   1430.3    343.4   1561.0   535.00      0.0   1430.3      0.0   1156.5      0.0    165.8       73    100.3    100.3      100     0.000     0.000     0.000     0.000      122        0        0        0       10        1       -0    18.392       98     30.0    5.518     2.08       21        8     2094  1206_RCP45_rainfed_15April_loam.PRM
  Tot(79)       15        4     2095   1343.0    388.3   1565.9   536.00      0.0   1343.0      0.0   1077.7      0.0    158.5       61    114.0    114.0      100     0.000     0.000     0.000     0.000      118        0        0        0        9        5        0    17.297       94     30.0    5.189     1.92       18        8     2095  1206_RCP45_rainfed_15April_loam.PRM
  Tot(80)       15        4     2096   1217.0    375.4   1567.4   536.00      0.0   1217.0      0.0    945.6      0.0    138.2       54    114.1    114.1      100     0.000     0.000     0.000     0.000      115        0        0        0        8        3        0    17.522       96     30.0    5.257     2.09       13        8     2096  1206_RCP45_rainfed_15April_loam.PRM
  Tot(81)       15        4     2097   1280.5    372.9   1563.1   537.00      0.0   1280.5      0.0    997.5      0.0    161.5       65    112.6    112.6      100     0.000     0.000     0.000     0.000      116        0        0        0        8        3        0    17.642       96     30.0    5.293     1.95       16        8     2097  1206_RCP45_rainfed_15April_loam.PRM
  Tot(82)       15        4     2098   1814.1    383.2   1560.6   537.00      0.0   1814.1      0.0   1555.7      0.0    137.5       53    112.3    112.3       99     0.000     0.000     0.000     0.000      117        0        0        0        9        4        1    17.015       94     30.0    5.104     2.05       16        8     2098  1206_RCP45_rainfed_15April_loam.PRM
  Tot(83)       15        4     2099   1136.0    352.7   1568.8   538.00      0.0   1136.0      0.0    848.9      0.0    190.8       88    105.3    105.3      100     0.000     0.000     0.000     0.000      124        0        0        0       11        0        0    18.461       99     30.0    5.538     1.89       23        8     2099  1206_RCP45_rainfed_15April_loam.PRM
