AquaCrop 6.0 (March 2017) - Output created on (date) : 28/06/2021   at (time) : 13:49:51

    RunNr     Day1   Month1    Year1     Rain      ETo       GD     CO2      Irri   Infilt   Runoff    Drain   Upflow        E     E/Ex       Tr      TrW   Tr/Trx    SaltIn   SaltOut    SaltUp  SaltProf     Cycle   SaltStr  FertStr  WeedStr  TempStr   ExpStr   StoStr  BioMass  Brelative   HI     Yield     WPet     DayN   MonthN    YearN
                                           mm       mm    °C.day    ppm        mm       mm       mm       mm       mm       mm        %       mm       mm        %    ton/ha    ton/ha    ton/ha    ton/ha      days       %        %        %        %        %        %    ton/ha        %       %    ton/ha    kg/m3
   Tot(1)       15        4     2017   1869.6    386.9   1563.6   407.00     36.2   1869.6      0.0   1601.7      0.0    198.1       80    107.1    107.1      100     0.000     0.000     0.000     0.000      140        0        0        0       19        0        0    18.520       99     30.0    5.556     1.83        8        9     2017  1206_RCP85_net_15April_sandyloam.PRM
   Tot(2)       15        4     2018   1498.0    416.5   1564.9   410.00    130.6   1498.0      0.0   1318.7      0.0    199.4       70    110.1    110.1      100     0.000     0.000     0.000     0.000      133        0        0        0       17        0        0    18.203       99     30.0    5.461     1.78        4        9     2018  1206_RCP85_net_15April_sandyloam.PRM
   Tot(3)       15        4     2019   1563.0    463.4   1563.2   413.00    152.9   1563.0      0.0   1315.8      0.0    229.3       80    167.5    167.5      100     0.000     0.000     0.000     0.000      123        0        0        0       11        0        0    17.829       99     30.0    5.349     1.35       24        8     2019  1206_RCP85_net_15April_sandyloam.PRM
   Tot(4)       15        4     2020   1492.8    388.8   1558.2   416.00     97.3   1492.8      0.0   1270.0      0.0    214.0       82    110.3    110.3      100     0.000     0.000     0.000     0.000      134        0        0        0       17        0        0    18.274       99     30.0    5.482     1.70        3        9     2020  1206_RCP85_net_15April_sandyloam.PRM
   Tot(5)       15        4     2021   1673.0    415.2   1564.3   419.00    122.6   1673.0      0.0   1459.9      0.0    231.9       82    109.1    109.1      100     0.000     0.000     0.000     0.000      137        0        0        0       18        0        0    18.383       99     30.0    5.515     1.63        7        9     2021  1206_RCP85_net_15April_sandyloam.PRM
   Tot(6)       15        4     2022    935.0    505.5   1562.6   422.00    272.8    935.0      0.0    738.4      0.0    239.3       78    197.4    197.4      100     0.000     0.000     0.000     0.000      120        0        0        0       11        1        0    17.016       99     30.0    5.105     1.17       20        8     2022  1206_RCP85_net_15April_sandyloam.PRM
   Tot(7)       15        4     2023   1433.3    419.0   1558.7   425.00     99.6   1433.3      0.0   1207.3      0.0    205.2       72    104.8    104.8      100     0.000     0.000     0.000     0.000      135        0        0        0       17        0        0    18.448       99     30.0    5.534     1.79        6        9     2023  1206_RCP85_net_15April_sandyloam.PRM
   Tot(8)       15        4     2024   1812.9    396.5   1557.1   428.00     92.4   1812.9      0.0   1586.8      0.0    185.3       69    114.1    114.1      100     0.000     0.000     0.000     0.000      130        0        0        0       14        0        0    18.584       99     30.0    5.575     1.86       29        8     2024  1206_RCP85_net_15April_sandyloam.PRM
   Tot(9)       15        4     2025   1138.5    420.6   1565.3   431.00     99.7   1138.5      0.0    887.9      0.0    220.8       84    129.8    129.8      100     0.000     0.000     0.000     0.000      130        0        0        0       14        0        0    18.444       99     30.0    5.533     1.59       31        8     2025  1206_RCP85_net_15April_sandyloam.PRM
  Tot(10)       15        4     2026   1445.8    479.1   1557.7   435.00    229.9   1445.8      0.0   1225.6      0.0    245.1       88    196.3    196.3      100     0.000     0.000     0.000     0.000      120        0        0        0       12        1        0    17.007       99     30.0    5.102     1.16       23        8     2026  1206_RCP85_net_15April_sandyloam.PRM
  Tot(11)       15        4     2027   1305.4    457.0   1560.2   438.00    123.9   1305.4      0.0   1088.6      0.0    204.2       68    135.4    135.4      100     0.000     0.000     0.000     0.000      128        0        0        0       14        0        0    18.352       99     30.0    5.506     1.63       28        8     2027  1206_RCP85_net_15April_sandyloam.PRM
  Tot(12)       15        4     2028   1752.2    399.7   1562.3   442.00    120.4   1752.2      0.0   1527.2      0.0    212.1       82    130.7    130.7      100     0.000     0.000     0.000     0.000      130        0        0        0       15        0        0    18.264       99     30.0    5.479     1.60       30        8     2028  1206_RCP85_net_15April_sandyloam.PRM
  Tot(13)       15        4     2029   1326.9    397.9   1558.3   445.00     67.8   1326.9      0.0   1049.4      0.0    209.2       83    130.3    130.3      100     0.000     0.000     0.000     0.000      126        0        0        0       13        0        0    18.426       99     30.0    5.528     1.64       27        8     2029  1206_RCP85_net_15April_sandyloam.PRM
  Tot(14)       15        4     2030   1672.3    416.8   1560.9   449.00     98.4   1672.3      0.0   1388.2      0.0    205.8       76    136.3    136.3      100     0.000     0.000     0.000     0.000      127        0        0        0       13        0        0    18.321       99     30.0    5.496     1.61       27        8     2030  1206_RCP85_net_15April_sandyloam.PRM
  Tot(15)       15        4     2031   1953.6    443.7   1560.2   452.00    126.3   1953.6      0.0   1723.4      0.0    236.9       81    126.4    126.4      100     0.000     0.000     0.000     0.000      131        0        0        0       15        0        0    18.308       99     30.0    5.492     1.52        1        9     2031  1206_RCP85_net_15April_sandyloam.PRM
  Tot(16)       15        4     2032   1441.6    427.0   1558.3   456.00    149.8   1441.6      0.0   1240.3      0.0    213.9       78    136.4    136.4      100     0.000     0.000     0.000     0.000      124        0        0        0       13        0        0    18.175       99     30.0    5.452     1.57       24        8     2032  1206_RCP85_net_15April_sandyloam.PRM
  Tot(17)       15        4     2033   1313.0    433.9   1558.2   460.00    129.7   1313.0      0.0   1088.9      0.0    211.4       74    130.7    130.7      100     0.000     0.000     0.000     0.000      126        0        0        0       13        0        0    18.207       99     30.0    5.462     1.60       26        8     2033  1206_RCP85_net_15April_sandyloam.PRM
  Tot(18)       15        4     2034   2100.6    415.0   1567.1   464.00    108.8   2100.6      0.0   1815.7      0.0    214.0       80    124.9    124.9      100     0.000     0.000     0.000     0.000      127        0        0        0       13        0        0    18.294       99     30.0    5.488     1.62       28        8     2034  1206_RCP85_net_15April_sandyloam.PRM
  Tot(19)       15        4     2035   1413.0    410.5   1558.3   468.00     77.1   1413.0      0.0   1150.5      0.0    226.9       86    119.0    119.0      100     0.000     0.000     0.000     0.000      134        0        0        0       16        0        0    18.633       99     30.0    5.590     1.62        4        9     2035  1206_RCP85_net_15April_sandyloam.PRM
  Tot(20)       15        4     2036   1574.1    357.3   1567.9   472.00     53.4   1574.1      0.0   1312.0      0.0    198.0       88    114.7    114.7      100     0.000     0.000     0.000     0.000      130        0        0        0       14        0        0    18.487       99     30.0    5.546     1.78       30        8     2036  1206_RCP85_net_15April_sandyloam.PRM
  Tot(21)       15        4     2037   2054.0    397.4   1564.1   476.00    125.8   2054.0      0.0   1819.8      0.0    227.3       86    100.5    100.5      100     0.000     0.000     0.000     0.000      133        0        0        0       16        0        0    18.852       99     30.0    5.655     1.73        3        9     2037  1206_RCP85_net_15April_sandyloam.PRM
  Tot(22)       15        4     2038   1701.7    386.1   1561.7   481.00     79.5   1701.7      0.0   1478.7      0.0    193.9       76    110.6    110.6      100     0.000     0.000     0.000     0.000      133        0        0        0       16        0       -0    18.692       99     30.0    5.608     1.86        2        9     2038  1206_RCP85_net_15April_sandyloam.PRM
  Tot(23)       15        4     2039   1231.2    421.6   1566.3   485.00    118.4   1231.2      0.0    990.3      0.0    200.9       81    157.9    157.9      100     0.000     0.000     0.000     0.000      121        0        0        0       11        0        0    17.882       99     30.0    5.365     1.50       21        8     2039  1206_RCP85_net_15April_sandyloam.PRM
  Tot(24)       15        4     2040   1496.8    406.4   1560.6   489.00    146.5   1496.8      0.0   1296.0      0.0    209.2       75    115.1    115.1      100     0.000     0.000     0.000     0.000      127        0        0        0       14        1        0    18.462       99     30.0    5.539     1.71       27        8     2040  1206_RCP85_net_15April_sandyloam.PRM
  Tot(25)       15        4     2041   1417.9    393.3   1566.0   494.00     87.9   1417.9      0.0   1170.3      0.0    196.1       82    137.1    137.1      100     0.000     0.000     0.000     0.000      124        0        0        0       11        0        0    18.488       99     30.0    5.546     1.67       23        8     2041  1206_RCP85_net_15April_sandyloam.PRM
  Tot(26)       15        4     2042    989.8    423.1   1560.6   499.00    106.9    989.8      0.0    739.8      0.0    217.3       80    137.2    137.2      100     0.000     0.000     0.000     0.000      125        0        0        0       12        0        0    18.406       99     30.0    5.522     1.56       24        8     2042  1206_RCP85_net_15April_sandyloam.PRM
  Tot(27)       15        4     2043   1956.2    372.9   1563.4   504.00     68.0   1956.2      0.0   1706.0      0.0    210.1       85    106.1    106.1      100     0.000     0.000     0.000     0.000      130        0        0        0       14        0        0    18.849       99     30.0    5.655     1.80       29        8     2043  1206_RCP85_net_15April_sandyloam.PRM
  Tot(28)       15        4     2044   1868.1    355.3   1564.7   508.00     59.0   1868.1      0.0   1628.4      0.0    188.1       82    100.1    100.1      100     0.000     0.000     0.000     0.000      132        0        0        0       15        0        0    18.805       99     30.0    5.641     1.97       31        8     2044  1206_RCP85_net_15April_sandyloam.PRM
  Tot(29)       15        4     2045   1153.8    400.5   1566.5   513.00    102.4   1153.8      0.0    926.1      0.0    208.6       84    120.5    120.5      100     0.000     0.000     0.000     0.000      126        0        0        0       12        0        0    18.684       99     30.0    5.605     1.71       26        8     2045  1206_RCP85_net_15April_sandyloam.PRM
  Tot(30)       15        4     2046   1426.3    442.3   1559.9   519.00    229.4   1426.3      0.0   1282.7      0.0    199.3       74    167.4    167.4      100     0.000     0.000     0.000     0.000      113        0        0        0        9        1        0    17.171       99     30.0    5.151     1.41       12        8     2046  1206_RCP85_net_15April_sandyloam.PRM
  Tot(31)       15        4     2047   1383.9    405.2   1562.7   524.00    111.1   1383.9      0.0   1126.8      0.0    218.4       87    137.6    137.6      100     0.000     0.000     0.000     0.000      119        0        0        0       10        0        0    18.261       99     30.0    5.478     1.54       19        8     2047  1206_RCP85_net_15April_sandyloam.PRM
  Tot(32)       15        4     2048   1652.4    363.2   1557.0   529.00     81.8   1652.4      0.0   1434.3      0.0    209.8       82     90.3     90.3      100     0.000     0.000     0.000     0.000      129        0        0        0       13        0        0    18.996       99     30.0    5.699     1.90       29        8     2048  1206_RCP85_net_15April_sandyloam.PRM
  Tot(33)       15        4     2049   1402.0    372.3   1562.4   535.00     69.9   1402.0      0.0   1160.6      0.0    204.9       84    106.9    106.9      100     0.000     0.000     0.000     0.000      129        0        0        0       13        0        0    18.623       99     30.0    5.587     1.80       28        8     2049  1206_RCP85_net_15April_sandyloam.PRM
  Tot(34)       15        4     2050   2185.1    392.8   1565.1   541.00     76.3   2185.1      0.0   1892.3      0.0    214.4       87    125.0    125.0      100     0.000     0.000     0.000     0.000      125        0        0        0       11        0        0    18.525       99     30.0    5.557     1.64       26        8     2050  1206_RCP85_net_15April_sandyloam.PRM
  Tot(35)       15        4     2051    984.7    407.4   1569.5   546.00    140.8    984.7      0.0    763.0      0.0    208.3       87    149.5    149.5      100     0.000     0.000     0.000     0.000      120        0        0        0       10        0        0    17.720       99     30.0    5.316     1.50       19        8     2051  1206_RCP85_net_15April_sandyloam.PRM
  Tot(36)       15        4     2052   1643.1    443.4   1559.7   552.00    163.2   1643.1      0.0   1415.5      0.0    210.8       82    170.0    170.0      100     0.000     0.000     0.000     0.000      117        0        0        0        9        0        0    17.675       99     30.0    5.303     1.40       17        8     2052  1206_RCP85_net_15April_sandyloam.PRM
  Tot(37)       15        4     2053   1169.3    387.0   1558.5   558.00     75.1   1169.3      0.0    850.0      0.0    198.9       81    126.2    126.2      100     0.000     0.000     0.000     0.000      123        0        0        0       11        0        0    18.618       99     30.0    5.585     1.72       22        8     2053  1206_RCP85_net_15April_sandyloam.PRM
  Tot(38)       15        4     2054   1686.8    386.4   1564.5   564.00     84.7   1686.8      0.0   1453.1      0.0    195.7       76    112.8    112.8      100     0.000     0.000     0.000     0.000      123        0        0        0       11        0        0    18.601       99     30.0    5.580     1.82       22        8     2054  1206_RCP85_net_15April_sandyloam.PRM
  Tot(39)       15        4     2055   1062.0    381.8   1568.2   571.00     98.7   1062.0      0.0    819.6      0.0    199.8       88    137.0    137.0      100     0.000     0.000     0.000     0.000      115        0        0        0        8        0        0    17.837       99     30.0    5.351     1.59       15        8     2055  1206_RCP85_net_15April_sandyloam.PRM
  Tot(40)       15        4     2056   1703.1    368.9   1567.1   577.00    102.8   1703.1      0.0   1487.0      0.0    208.3       87    109.3    109.3      100     0.000     0.000     0.000     0.000      124        0        0        0       11        0        0    18.714       99     30.0    5.614     1.78       24        8     2056  1206_RCP85_net_15April_sandyloam.PRM
  Tot(41)       15        4     2057   1704.6    373.6   1563.5   583.00    125.0   1704.6      0.0   1507.4      0.0    197.0       79    113.5    113.5      100     0.000     0.000     0.000     0.000      116        0        0        0        8        0        0    18.212       99     30.0    5.464     1.76       15        8     2057  1206_RCP85_net_15April_sandyloam.PRM
  Tot(42)       15        4     2058   1559.1    374.9   1557.4   590.00     89.9   1559.1      0.0   1344.0      0.0    189.6       78    108.7    108.7      100     0.000     0.000     0.000     0.000      121        0        0        0       10        0        0    18.573       99     30.0    5.572     1.87       20        8     2058  1206_RCP85_net_15April_sandyloam.PRM
  Tot(43)       15        4     2059   1851.2    373.9   1558.1   597.00     98.2   1851.2      0.0   1614.8      0.0    190.9       75    112.8    112.8      100     0.000     0.000     0.000     0.000      116        0        0        0        8        0        0    18.251       99     30.0    5.475     1.81       17        8     2059  1206_RCP85_net_15April_sandyloam.PRM
  Tot(44)       15        4     2060   1692.1    397.4   1557.2   604.00    148.6   1692.1      0.0   1510.2      0.0    198.3       76    124.2    124.2      100     0.000     0.000     0.000     0.000      119        0        0        0        9        0        0    18.193       99     30.0    5.458     1.69       18        8     2060  1206_RCP85_net_15April_sandyloam.PRM
  Tot(45)       15        4     2061   1356.2    376.1   1560.4   611.00     88.6   1356.2      0.0   1124.1      0.0    185.2       81    132.0    132.0      100     0.000     0.000     0.000     0.000      116        0        0        0        8        0        0    18.146       99     30.0    5.444     1.72       15        8     2061  1206_RCP85_net_15April_sandyloam.PRM
  Tot(46)       15        4     2062   1537.7    368.7   1566.5   618.00     51.7   1537.7      0.0   1253.6      0.0    205.4       91    120.0    120.0      100     0.000     0.000     0.000     0.000      121        0        0        0       10        0        0    18.382       99     30.0    5.515     1.70       20        8     2062  1206_RCP85_net_15April_sandyloam.PRM
  Tot(47)       15        4     2063   1617.5    338.2   1569.2   625.00     69.6   1617.5      0.0   1415.3      0.0    178.4       80     95.3     95.3      100     0.000     0.000     0.000     0.000      123        0        0        0       10        0        0    18.945       99     30.0    5.684     2.09       23        8     2063  1206_RCP85_net_15April_sandyloam.PRM
  Tot(48)       15        4     2064   1273.8    413.4   1567.2   632.00    135.3   1273.8      0.0   1055.8      0.0    221.3       83    131.8    131.8      100     0.000     0.000     0.000     0.000      117        0        0        0        8        0        0    18.062       99     30.0    5.419     1.55       17        8     2064  1206_RCP85_net_15April_sandyloam.PRM
  Tot(49)       15        4     2065   1600.3    346.1   1559.3   639.00     47.0   1600.3      0.0   1338.2      0.0    199.3       88     99.4     99.4      100     0.000     0.000     0.000     0.000      122        0        0        0       10        0        0    18.820       99     30.0    5.646     1.89       21        8     2065  1206_RCP85_net_15April_sandyloam.PRM
  Tot(50)       15        4     2066   1876.9    372.4   1564.2   647.00     73.4   1876.9      0.0   1657.2      0.0    178.9       73    115.2    115.2      100     0.000     0.000     0.000     0.000      117        0        0        0        9        0        0    18.279       99     30.0    5.484     1.88       16        8     2066  1206_RCP85_net_15April_sandyloam.PRM
  Tot(51)       15        4     2067   1887.7    366.7   1560.0   654.00     72.7   1887.7      0.0   1665.1      0.0    184.0       75    110.6    110.6      100     0.000     0.000     0.000     0.000      115        0        0        0        7        0        0    18.263       99     30.0    5.479     1.87       14        8     2067  1206_RCP85_net_15April_sandyloam.PRM
  Tot(52)       15        4     2068   1721.7    352.4   1557.3   662.00     60.0   1721.7      0.0   1492.4      0.0    176.4       80    110.7    110.7      100     0.000     0.000     0.000     0.000      119        0        0        0        9        0        0    18.482       99     30.0    5.545     1.93       17        8     2068  1206_RCP85_net_15April_sandyloam.PRM
  Tot(53)       15        4     2069   1559.6    355.3   1568.4   669.00     49.0   1559.6      0.0   1316.9      0.0    190.2       83    102.6    102.6      100     0.000     0.000     0.000     0.000      117        0        0        0        8        0        0    18.420       99     30.0    5.526     1.91       18        8     2069  1206_RCP85_net_15April_sandyloam.PRM
  Tot(54)       15        4     2070   1561.2    346.5   1562.3   677.00     55.7   1561.2      0.0   1307.2      0.0    185.8       85    102.0    102.0      100     0.000     0.000     0.000     0.000      117        0        0        0        8        0        0    18.706       99     30.0    5.612     1.96       16        8     2070  1206_RCP85_net_15April_sandyloam.PRM
  Tot(55)       15        4     2071   1770.0    306.6   1560.9   685.00     16.0   1770.0      0.0   1525.2      0.0    171.6       91     92.0     92.0      100     0.000     0.000     0.000     0.000      124        0        0        0       11        0        0    18.889       99     30.0    5.667     2.17       23        8     2071  1206_RCP85_net_15April_sandyloam.PRM
  Tot(56)       15        4     2072   1710.7    310.9   1560.0   693.00     36.7   1710.7      0.0   1457.7      0.0    174.3       86     87.5     87.5      100     0.000     0.000     0.000     0.000      119        0        0        0        9        0        0    18.715       99     30.0    5.615     2.15       17        8     2072  1206_RCP85_net_15April_sandyloam.PRM
  Tot(57)       15        4     2073   1078.5    433.7   1562.3   701.00    229.9   1078.5      0.0    932.7      0.0    197.2       75    164.3    164.3      100     0.000     0.000     0.000     0.000      106        0        0        0        5        1        0    16.905       99     30.0    5.072     1.41        4        8     2073  1206_RCP85_net_15April_sandyloam.PRM
  Tot(58)       15        4     2074   1337.6    376.7   1569.8   709.00     53.6   1337.6      0.0   1068.4      0.0    198.9       88    125.5    125.5      100     0.000     0.000     0.000     0.000      115        0        0        0        8        0        0    18.156       99     30.0    5.447     1.69       14        8     2074  1206_RCP85_net_15April_sandyloam.PRM
  Tot(59)       15        4     2075   1843.8    418.3   1560.2   717.00     96.8   1843.8      0.0   1600.5      0.0    188.7       75    144.3    144.3      100     0.000     0.000     0.000     0.000      109        0        0        0        6        0       -0    17.485       99     30.0    5.246     1.58        7        8     2075  1206_RCP85_net_15April_sandyloam.PRM
  Tot(60)       15        4     2076   1923.6    289.9   1566.0   725.00     22.9   1923.6      0.0   1701.8      0.0    162.5       88     76.8     76.8      100     0.000     0.000     0.000     0.000      124        0        0        0       10        0       -0    19.172       99     30.0    5.751     2.43       23        8     2076  1206_RCP85_net_15April_sandyloam.PRM
  Tot(61)       15        4     2077   1440.7    315.5   1557.3   733.00     56.0   1440.7      0.0   1213.7      0.0    170.7       91    108.6    108.6      100     0.000     0.000     0.000     0.000      117        0        0        0        8        0        0    18.406       99     30.0    5.522     1.98       15        8     2077  1206_RCP85_net_15April_sandyloam.PRM
  Tot(62)       15        4     2078   2010.3    355.6   1564.4   742.00    114.4   2010.3      0.0   1838.0      0.0    189.5       77     94.9     94.9      100     0.000     0.000     0.000     0.000      112        0        0        0        6        0        0    18.538       99     30.0    5.561     1.96       10        8     2078  1206_RCP85_net_15April_sandyloam.PRM
  Tot(63)       15        4     2079   1331.3    381.1   1569.7   750.00    102.4   1331.3      0.0   1125.2      0.0    194.7       78    108.8    108.8      100     0.000     0.000     0.000     0.000      114        0        0        0        7        0        0    18.643       99     30.0    5.593     1.85       13        8     2079  1206_RCP85_net_15April_sandyloam.PRM
  Tot(64)       15        4     2080   1705.6    394.4   1561.6   758.00    118.8   1705.6      0.0   1494.1      0.0    204.8       81    117.4    117.4      100     0.000     0.000     0.000     0.000      110        0        0        0        6        0        0    17.874       99     30.0    5.362     1.67        8        8     2080  1206_RCP85_net_15April_sandyloam.PRM
  Tot(65)       15        4     2081   1807.4    334.5   1563.1   767.00     51.7   1807.4      0.0   1578.5      0.0    187.3       84     92.3     92.3      100     0.000     0.000     0.000     0.000      114        0        0        0        7        0        0    18.459       99     30.0    5.538     2.00       13        8     2081  1206_RCP85_net_15April_sandyloam.PRM
  Tot(66)       15        4     2082   1714.0    299.2   1566.3   775.00     32.4   1714.0      0.0   1497.0      0.0    163.0       86     82.1     82.1      100     0.000     0.000     0.000     0.000      121        0        0        0        9        0       -0    18.966       99     30.0    5.690     2.33       20        8     2082  1206_RCP85_net_15April_sandyloam.PRM
  Tot(67)       15        4     2083   1416.4    398.6   1569.7   784.00     86.3   1416.4      0.0   1173.0      0.0    184.1       78    142.6    142.6      100     0.000     0.000     0.000     0.000      109        0        0        0        6        0        0    17.553       99     30.0    5.266     1.62        7        8     2083  1206_RCP85_net_15April_sandyloam.PRM
  Tot(68)       15        4     2084   1616.6    368.9   1566.7   792.00     39.0   1616.6      0.0   1306.7      0.0    203.6       91    123.1    123.1      100     0.000     0.000     0.000     0.000      108        0        0        0        5        0        0    17.394       99     30.0    5.218     1.60        7        8     2084  1206_RCP85_net_15April_sandyloam.PRM
  Tot(69)       15        4     2085   1616.3    331.7   1557.8   801.00     93.3   1616.3      0.0   1421.3      0.0    180.6       84     96.1     96.1      100     0.000     0.000     0.000     0.000      111        0        0        0        6        0        0    18.439       99     30.0    5.532     2.02       11        8     2085  1206_RCP85_net_15April_sandyloam.PRM
  Tot(70)       15        4     2086   1032.7    333.5   1559.7   810.00     73.1   1032.7      0.0    803.0      0.0    156.8       80    117.2    117.2      100     0.000     0.000     0.000     0.000      108        0        0        0        5        0        0    17.754       99     30.0    5.326     1.95        6        8     2086  1206_RCP85_net_15April_sandyloam.PRM
  Tot(71)       15        4     2087   1016.0    334.5   1560.6   818.00     47.2   1016.0      0.0    747.6      0.0    169.1       88    123.0    123.0      100     0.000     0.000     0.000     0.000      106        0        0        0        4        0        0    17.486       99     30.0    5.246     1.80        4        8     2087  1206_RCP85_net_15April_sandyloam.PRM
  Tot(72)       15        4     2088   1957.9    352.4   1562.1   827.00     63.5   1957.9      0.0   1732.5      0.0    175.3       78    110.8    110.8      100     0.000     0.000     0.000     0.000      109        0        0        0        5        0        0    17.868       99     30.0    5.360     1.88        7        8     2088  1206_RCP85_net_15April_sandyloam.PRM
  Tot(73)       15        4     2089   1255.6    357.6   1567.3   836.00    109.1   1255.6      0.0   1071.0      0.0    193.6       79     97.0     97.0      100     0.000     0.000     0.000     0.000      108        0        0        0        5        1        0    18.016       99     30.0    5.405     1.87        7        8     2089  1206_RCP85_net_15April_sandyloam.PRM
  Tot(74)       15        4     2090   1287.6    370.4   1557.7   845.00    128.5   1287.6      0.0   1097.3      0.0    208.7       84    108.9    108.9      100     0.000     0.000     0.000     0.000      107        0        0        0        5        0        0    17.770       99     30.0    5.331     1.69        6        8     2090  1206_RCP85_net_15April_sandyloam.PRM
  Tot(75)       15        4     2091   1382.9    366.6   1568.1   854.00    112.9   1382.9      0.0   1167.0      0.0    198.3       90    128.8    128.8      100     0.000     0.000     0.000     0.000      104        0        0        0        4        0        0    16.864       99     30.0    5.059     1.56        4        8     2091  1206_RCP85_net_15April_sandyloam.PRM
  Tot(76)       15        4     2092   1876.7    326.8   1567.3   863.00     62.2   1876.7      0.0   1651.2      0.0    185.5       92    103.1    103.1      100     0.000     0.000     0.000     0.000      111        0        0        0        6        0        0    18.196       99     30.0    5.459     1.91       10        8     2092  1206_RCP85_net_15April_sandyloam.PRM
  Tot(77)       15        4     2093    942.4    339.9   1557.9   872.00     72.6    942.4      0.0    710.9      0.0    190.5       85     94.8     94.8      100     0.000     0.000     0.000     0.000      105        0        0        0        4        0        0    17.657       99     30.0    5.297     1.87        4        8     2093  1206_RCP85_net_15April_sandyloam.PRM
  Tot(78)       15        4     2094   1338.2    314.1   1566.3   881.00     36.6   1338.2      0.0   1066.6      0.0    182.3       91     90.0     90.0      100     0.000     0.000     0.000     0.000      110        0        0        0        5        0        0    17.955       99     30.0    5.387     1.98       10        8     2094  1206_RCP85_net_15April_sandyloam.PRM
  Tot(79)       15        4     2095   1604.2    294.2   1561.3   890.00     24.8   1604.2      0.0   1334.1      0.0    165.6       96     97.5     97.5      100     0.000     0.000     0.000     0.000      110        0        0        0        5        0        0    18.155       99     30.0    5.446     2.07        9        8     2095  1206_RCP85_net_15April_sandyloam.PRM
  Tot(80)       15        4     2096   1337.4    361.3   1562.6   899.00     64.4   1337.4      0.0   1073.8      0.0    195.9       90    115.9    115.9      100     0.000     0.000     0.000     0.000      108        0        0        0        5        0        0    17.727       99     30.0    5.318     1.71        7        8     2096  1206_RCP85_net_15April_sandyloam.PRM
  Tot(81)       15        4     2097   1555.4    309.4   1558.6   908.00     50.2   1555.4      0.0   1340.0      0.0    171.3       85     85.9     85.9      100     0.000     0.000     0.000     0.000      109        0        0        0        5        0        0    18.224       99     30.0    5.467     2.14        7        8     2097  1206_RCP85_net_15April_sandyloam.PRM
  Tot(82)       15        4     2098   1293.5    307.6   1567.5   917.00     22.0   1293.5      0.0   1055.0      0.0    166.4       87     91.6     91.6      100     0.000     0.000     0.000     0.000      109        0        0        0        5        0        0    17.884       99     30.0    5.365     2.09        7        8     2098  1206_RCP85_net_15April_sandyloam.PRM
  Tot(83)       15        4     2099   1923.8    321.6   1568.9   927.00     39.5   1923.8      0.0   1675.6      0.0    169.5       81     85.8     85.8      100     0.000     0.000     0.000     0.000      107        0        0        0        4        0        0    18.003       99     30.0    5.401     2.13        6        8     2099  1206_RCP85_net_15April_sandyloam.PRM
