AquaCrop 6.0 (March 2017) - Output created on (date) : 28/06/2021   at (time) : 13:42:47

    RunNr     Day1   Month1    Year1     Rain      ETo       GD     CO2      Irri   Infilt   Runoff    Drain   Upflow        E     E/Ex       Tr      TrW   Tr/Trx    SaltIn   SaltOut    SaltUp  SaltProf     Cycle   SaltStr  FertStr  WeedStr  TempStr   ExpStr   StoStr  BioMass  Brelative   HI     Yield     WPet     DayN   MonthN    YearN
                                           mm       mm    °C.day    ppm        mm       mm       mm       mm       mm       mm        %       mm       mm        %    ton/ha    ton/ha    ton/ha    ton/ha      days       %        %        %        %        %        %    ton/ha        %       %    ton/ha    kg/m3
   Tot(1)       15        5     2017   1329.0    373.5   1559.3   404.00     70.2   1329.0      0.0   1090.4      0.0    203.6       88    106.0    106.0      100     0.000     0.000     0.000     0.000      129        0        0        0       15        0        0    18.274       99     30.0    5.482     1.78       28        9     2017  1206_RCP45_net_15May_sandyloam.PRM
   Tot(2)       15        5     2018   1613.5    386.6   1561.3   407.00     68.0   1613.5      0.0   1377.1      0.0    203.7       86     98.4     98.4      100     0.000     0.000     0.000     0.000      141        0        0        0       21        0        0    18.447       99     30.0    5.534     1.84        9       10     2018  1206_RCP45_net_15May_sandyloam.PRM
   Tot(3)       15        5     2019   1041.8    397.9   1558.6   409.00     98.6   1041.8      0.0    825.7      0.0    205.8       84    112.7    112.7      100     0.000     0.000     0.000     0.000      126        0        0        0       14        0        0    18.166       99     30.0    5.450     1.72       25        9     2019  1206_RCP45_net_15May_sandyloam.PRM
   Tot(4)       15        5     2020   1277.0    368.4   1564.9   411.00     31.9   1277.0      0.0   1023.8      0.0    182.7       81    104.6    104.6      100     0.000     0.000     0.000     0.000      135        0        0        0       17        0        0    18.318       99     30.0    5.495     1.93        2       10     2020  1206_RCP45_net_15May_sandyloam.PRM
   Tot(5)       15        5     2021   2127.9    341.1   1559.6   413.00     13.3   2127.9      0.0   1868.4      0.0    170.4       92     89.2     89.2      100     0.000     0.000     0.000     0.000      158        0        0        0       31        0        0    18.558       99     30.0    5.568     2.15       27       10     2021  1206_RCP45_net_15May_sandyloam.PRM
   Tot(6)       15        5     2022   1639.2    374.3   1562.1   416.00     18.3   1639.2      0.0   1379.0      0.0    185.3       85     91.5     91.5      100     0.000     0.000     0.000     0.000      147        0        0        0       24        0        0    18.579       99     30.0    5.574     2.02       15       10     2022  1206_RCP45_net_15May_sandyloam.PRM
   Tot(7)       15        5     2023   1633.0    345.3   1561.7   418.00      0.0   1633.0      0.0   1348.5      0.0    171.7       95    108.3    108.3      100     0.000     0.000     0.000     0.000      143        0        0        0       21        0        0    18.614       99     30.0    5.584     2.00       12       10     2023  1206_RCP45_net_15May_sandyloam.PRM
   Tot(8)       15        5     2024   1116.6    400.2   1562.0   420.00     54.9   1116.6      0.0    848.1      0.0    209.0       88    113.1    113.1      100     0.000     0.000     0.000     0.000      137        0        0        0       19        0        0    18.479       99     30.0    5.544     1.73        6       10     2024  1206_RCP45_net_15May_sandyloam.PRM
   Tot(9)       15        5     2025   1475.9    372.8   1561.8   423.00     74.4   1475.9      0.0   1262.6      0.0    199.9       84     98.5     98.5      100     0.000     0.000     0.000     0.000      129        0        0        0       14        0        0    18.492       99     30.0    5.548     1.87       26        9     2025  1206_RCP45_net_15May_sandyloam.PRM
  Tot(10)       15        5     2026   1805.8    362.5   1560.9   425.00     10.5   1805.8      0.0   1513.4      0.0    207.1       96     95.4     95.4      100     0.000     0.000     0.000     0.000      139        0        0        0       20        0       -0    18.456       99     30.0    5.537     1.84        7       10     2026  1206_RCP45_net_15May_sandyloam.PRM
  Tot(11)       15        5     2027   1632.6    375.8   1562.4   428.00     88.7   1632.6      0.0   1433.6      0.0    198.2       79     94.8     94.8      100     0.000     0.000     0.000     0.000      128        0        0        0       15        0        0    18.348       99     30.0    5.504     1.89       26        9     2027  1206_RCP45_net_15May_sandyloam.PRM
  Tot(12)       15        5     2028   1434.8    371.2   1559.1   430.00      5.7   1434.8      0.0   1141.1      0.0    196.6       92    111.5    111.5      100     0.000     0.000     0.000     0.000      138        0        0        0       19        0        0    18.549       99     30.0    5.565     1.82        7       10     2028  1206_RCP45_net_15May_sandyloam.PRM
  Tot(13)       15        5     2029   1567.9    390.8   1564.4   433.00     71.4   1567.9      0.0   1312.8      0.0    200.3       88    124.0    124.0      100     0.000     0.000     0.000     0.000      130        0        0        0       16        0        0    18.190       99     30.0    5.457     1.69       28        9     2029  1206_RCP45_net_15May_sandyloam.PRM
  Tot(14)       15        5     2030   1519.6    358.0   1557.2   435.00     13.7   1519.6      0.0   1256.2      0.0    187.0       90     99.3     99.3      100     0.000     0.000     0.000     0.000      137        0        0        0       18        0        0    18.703       99     30.0    5.611     1.96        4       10     2030  1206_RCP45_net_15May_sandyloam.PRM
  Tot(15)       15        5     2031   1394.6    426.1   1563.2   438.00    111.0   1394.6      0.0   1174.3      0.0    217.6       81    118.6    118.6      100     0.000     0.000     0.000     0.000      128        0        0        0       15        0        0    18.188       99     30.0    5.456     1.63       26        9     2031  1206_RCP45_net_15May_sandyloam.PRM
  Tot(16)       15        5     2032   1521.5    416.1   1563.4   440.00     51.4   1521.5      0.0   1270.5      0.0    202.3       83    112.1    112.1      100     0.000     0.000     0.000     0.000      130        0        0        0       14        0        0    18.597       99     30.0    5.579     1.79       28        9     2032  1206_RCP45_net_15May_sandyloam.PRM
  Tot(17)       15        5     2033   1344.7    360.6   1561.6   443.00     26.3   1344.7      0.0   1065.3      0.0    192.3       93    112.9    112.9      100     0.000     0.000     0.000     0.000      129        0        0        0       13        0        0    18.552       99     30.0    5.566     1.83       27        9     2033  1206_RCP45_net_15May_sandyloam.PRM
  Tot(18)       15        5     2034   1162.0    393.8   1561.3   445.00      7.1   1162.0      0.0    868.9      0.0    193.1       95    113.7    113.7      100     0.000     0.000     0.000     0.000      147        0        0        0       24        0        0    18.705       99     30.0    5.611     1.84       15       10     2034  1206_RCP45_net_15May_sandyloam.PRM
  Tot(19)       15        5     2035   1555.5    351.1   1566.0   448.00     58.5   1555.5      0.0   1307.2      0.0    197.1       93    107.3    107.3      100     0.000     0.000     0.000     0.000      126        0        0        0       13        0        0    18.431       99     30.0    5.529     1.83       24        9     2035  1206_RCP45_net_15May_sandyloam.PRM
  Tot(20)       15        5     2036   1794.6    339.9   1561.1   450.00     17.6   1794.6      0.0   1531.1      0.0    171.5       95    106.4    106.4      100     0.000     0.000     0.000     0.000      137        0        0        0       18        0        0    18.870       99     30.0    5.661     2.05        5       10     2036  1206_RCP45_net_15May_sandyloam.PRM
  Tot(21)       15        5     2037   1212.8    383.4   1557.7   453.00     42.3   1212.8      0.0    968.6      0.0    186.5       84    105.5    105.5      100     0.000     0.000     0.000     0.000      139        0        0        0       20        0        0    18.808       99     30.0    5.642     1.94        7       10     2037  1206_RCP45_net_15May_sandyloam.PRM
  Tot(22)       15        5     2038   1860.0    355.2   1558.8   456.00     17.8   1860.0      0.0   1597.2      0.0    198.6       95     90.2     90.2      100     0.000     0.000     0.000     0.000      140        0        0        0       20        0        0    18.793       99     30.0    5.638     1.97        9       10     2038  1206_RCP45_net_15May_sandyloam.PRM
  Tot(23)       15        5     2039   1722.2    306.3   1561.5   458.00      5.6   1722.2      0.0   1485.2      0.0    160.8       95     85.3     85.3      100     0.000     0.000     0.000     0.000      139        0        0        0       20        0        0    18.852       99     30.0    5.656     2.32        9       10     2039  1206_RCP45_net_15May_sandyloam.PRM
  Tot(24)       15        5     2040   1519.1    375.6   1563.8   461.00     35.9   1519.1      0.0   1260.4      0.0    198.1       91    103.4    103.4      100     0.000     0.000     0.000     0.000      133        0        0        0       16        0        0    18.777       99     30.0    5.633     1.88        1       10     2040  1206_RCP45_net_15May_sandyloam.PRM
  Tot(25)       15        5     2041   1419.1    403.8   1564.7   463.00     99.5   1419.1      0.0   1207.0      0.0    212.5       83    108.1    108.1      100     0.000     0.000     0.000     0.000      123        0        0        0       12        0        0    18.394       99     30.0    5.518     1.73       21        9     2041  1206_RCP45_net_15May_sandyloam.PRM
  Tot(26)       15        5     2042   1069.0    412.1   1562.7   466.00    121.1   1069.0      0.0    890.6      0.0    190.7       71    110.2    110.2      100     0.000     0.000     0.000     0.000      124        0        0        0       12        0        0    18.536       99     30.0    5.561     1.86       22        9     2042  1206_RCP45_net_15May_sandyloam.PRM
  Tot(27)       15        5     2043   1588.7    337.5   1562.6   469.00      2.2   1588.7      0.0   1325.2      0.0    182.0       92     94.5     94.5      100     0.000     0.000     0.000     0.000      131        0        0        0       14        0        0    18.809       99     30.0    5.643     2.05       29        9     2043  1206_RCP45_net_15May_sandyloam.PRM
  Tot(28)       15        5     2044   1992.8    338.6   1564.6   471.00      7.6   1992.8      0.0   1748.6      0.0    168.4       90     95.8     95.8      100     0.000     0.000     0.000     0.000      133        0        0        0       16        0        0    18.923       99     30.0    5.677     2.16        1       10     2044  1206_RCP45_net_15May_sandyloam.PRM
  Tot(29)       15        5     2045   1533.7    358.0   1559.6   474.00     24.5   1533.7      0.0   1277.5      0.0    186.2       89     92.5     92.5      100     0.000     0.000     0.000     0.000      143        0        0        0       22        0        0    18.820       99     30.0    5.646     2.04       12       10     2045  1206_RCP45_net_15May_sandyloam.PRM
  Tot(30)       15        5     2046   1999.6    343.6   1562.6   476.00     20.3   1999.6      0.0   1781.9      0.0    162.1       82     86.3     86.3      100     0.000     0.000     0.000     0.000      144        0        0        0       23        0        0    18.852       99     30.0    5.656     2.29       12       10     2046  1206_RCP45_net_15May_sandyloam.PRM
  Tot(31)       15        5     2047   1184.7    317.8   1565.7   479.00     12.7   1184.7      0.0    942.1      0.0    154.6       87    101.3    101.3      100     0.000     0.000     0.000     0.000      132        0        0        0       15        0        0    18.840       99     30.0    5.652     2.22       30        9     2047  1206_RCP45_net_15May_sandyloam.PRM
  Tot(32)       15        5     2048   1312.0    352.3   1563.0   481.00     19.5   1312.0      0.0   1057.1      0.0    169.4       88    101.3    101.3      100     0.000     0.000     0.000     0.000      139        0        0        0       20        0        0    18.977       99     30.0    5.693     2.11        7       10     2048  1206_RCP45_net_15May_sandyloam.PRM
  Tot(33)       15        5     2049   1480.3    402.3   1563.5   484.00    121.3   1480.3      0.0   1290.0      0.0    215.2       83    103.0    103.0      100     0.000     0.000     0.000     0.000      122        0        0        0       11        0        0    18.520       99     30.0    5.556     1.76       19        9     2049  1206_RCP45_net_15May_sandyloam.PRM
  Tot(34)       15        5     2050   1744.0    313.8   1565.3   487.00      6.8   1744.0      0.0   1493.3      0.0    174.3       96     84.8     84.8      100     0.000     0.000     0.000     0.000      136        0        0        0       17        0        0    18.980       99     30.0    5.694     2.21        4       10     2050  1206_RCP45_net_15May_sandyloam.PRM
  Tot(35)       15        5     2051   1788.6    319.2   1559.3   489.00     31.5   1788.6      0.0   1555.9      0.0    166.4       88     95.2     95.2      100     0.000     0.000     0.000     0.000      126        0        0        0       13        0        0    18.736       99     30.0    5.621     2.17       24        9     2051  1206_RCP45_net_15May_sandyloam.PRM
  Tot(36)       15        5     2052   1817.6    380.6   1562.3   492.00     64.9   1817.6      0.0   1615.4      0.0    171.4       72     99.2     99.2      100     0.000     0.000     0.000     0.000      126        0        0        0       13        0        0    18.760       99     30.0    5.628     2.10       23        9     2052  1206_RCP45_net_15May_sandyloam.PRM
  Tot(37)       15        5     2053   1668.6    340.0   1562.9   494.00     19.8   1668.6      0.0   1403.2      0.0    179.7       98    103.8    103.8      100     0.000     0.000     0.000     0.000      131        0        0        0       14        0        0    18.901       99     30.0    5.670     2.01       29        9     2053  1206_RCP45_net_15May_sandyloam.PRM
  Tot(38)       15        5     2054   1992.2    339.9   1563.7   496.00     52.8   1992.2      0.0   1785.7      0.0    175.0       86     89.8     89.8      100     0.000     0.000     0.000     0.000      130        0        0        0       15        0        0    18.964       99     30.0    5.689     2.17       28        9     2054  1206_RCP45_net_15May_sandyloam.PRM
  Tot(39)       15        5     2055   1359.7    352.3   1562.6   498.00     31.4   1359.7      0.0   1099.9      0.0    187.3       91    105.8    105.8      100     0.000     0.000     0.000     0.000      123        0        0        0       11        0       -0    18.629       99     30.0    5.589     1.91       22        9     2055  1206_RCP45_net_15May_sandyloam.PRM
  Tot(40)       15        5     2056   1212.5    352.4   1565.1   501.00     41.7   1212.5      0.0    963.2      0.0    177.2       89    110.3    110.3      100     0.000     0.000     0.000     0.000      131        0        0        0       15        0        0    18.912       99     30.0    5.674     1.99        1       10     2056  1206_RCP45_net_15May_sandyloam.PRM
  Tot(41)       15        5     2057   1493.5    354.9   1563.0   503.00     21.9   1493.5      0.0   1249.8      0.0    164.6       85    104.7    104.7      100     0.000     0.000     0.000     0.000      139        0        0        0       21        0        0    18.939       99     30.0    5.682     2.12        6       10     2057  1206_RCP45_net_15May_sandyloam.PRM
  Tot(42)       15        5     2058   1576.6    302.5   1561.2   505.00      0.0   1576.6      0.0   1323.4      0.0    162.4       98     88.5     88.5      100     0.000     0.000     0.000     0.000      135        0        0        0       17        0        0    18.899       99     30.0    5.670     2.28        4       10     2058  1206_RCP45_net_15May_sandyloam.PRM
  Tot(43)       15        5     2059   1652.7    339.0   1560.5   507.00     17.4   1652.7      0.0   1402.4      0.0    181.0       93     88.9     88.9      100     0.000     0.000     0.000     0.000      144        0        0        0       23        0        0    18.952       99     30.0    5.686     2.12       12       10     2059  1206_RCP45_net_15May_sandyloam.PRM
  Tot(44)       15        5     2060   2090.8    313.4   1558.0   509.00     11.8   2090.8      0.0   1863.4      0.0    159.8       93     86.3     86.3      100     0.000     0.000     0.000     0.000      131        0        0        0       15        0        0    19.025       99     30.0    5.708     2.34       29        9     2060  1206_RCP45_net_15May_sandyloam.PRM
  Tot(45)       15        5     2061   1492.1    371.0   1564.6   511.00     71.2   1492.1      0.0   1291.5      0.0    187.0       84     96.7     96.7      100     0.000     0.000     0.000     0.000      131        0        0        0       16        0        0    18.946       99     30.0    5.684     2.01       29        9     2061  1206_RCP45_net_15May_sandyloam.PRM
  Tot(46)       15        5     2062   1634.8    341.5   1559.0   513.00     24.5   1634.8      0.0   1399.3      0.0    169.5       93     97.9     97.9      100     0.000     0.000     0.000     0.000      133        0        0        0       17        0        0    19.031       99     30.0    5.709     2.15        1       10     2062  1206_RCP45_net_15May_sandyloam.PRM
  Tot(47)       15        5     2063   1680.6    345.8   1564.4   514.00     22.2   1680.6      0.0   1437.0      0.0    174.7       89    102.3    102.3      100     0.000     0.000     0.000     0.000      125        0        0        0       12        0        0    18.705       99     30.0    5.612     2.04       23        9     2063  1206_RCP45_net_15May_sandyloam.PRM
  Tot(48)       15        5     2064   1746.5    329.5   1559.1   516.00     13.9   1746.5      0.0   1498.5      0.0    167.6       89     96.6     96.6      100     0.000     0.000     0.000     0.000      131        0        0        0       14        0        0    19.010       99     30.0    5.703     2.18       29        9     2064  1206_RCP45_net_15May_sandyloam.PRM
  Tot(49)       15        5     2065   1648.1    370.8   1565.8   518.00     95.2   1648.1      0.0   1463.5      0.0    191.9       77     91.6     91.6      100     0.000     0.000     0.000     0.000      122        0        0        0       11        0        0    18.521       99     30.0    5.556     1.97       20        9     2065  1206_RCP45_net_15May_sandyloam.PRM
  Tot(50)       15        5     2066   1621.2    320.4   1557.9   519.00     25.2   1621.2      0.0   1405.0      0.0    147.3       82     94.6     94.6      100     0.000     0.000     0.000     0.000      134        0        0        0       17        0       -0    19.064       99     30.0    5.719     2.39        1       10     2066  1206_RCP45_net_15May_sandyloam.PRM
  Tot(51)       15        5     2067   2061.7    338.6   1565.6   520.00     41.5   2061.7      0.0   1834.9      0.0    180.2       89     88.2     88.2      100     0.000     0.000     0.000     0.000      134        0        0        0       16        0        0    18.984       99     30.0    5.695     2.14        2       10     2067  1206_RCP45_net_15May_sandyloam.PRM
  Tot(52)       15        5     2068   1222.6    359.1   1557.7   522.00     18.2   1222.6      0.0    961.6      0.0    165.6       85    113.9    113.9      100     0.000     0.000     0.000     0.000      132        0        0        0       16        0        0    18.989       99     30.0    5.697     2.05       30        9     2068  1206_RCP45_net_15May_sandyloam.PRM
  Tot(53)       15        5     2069   1589.4    339.4   1560.1   523.00     31.6   1589.4      0.0   1359.8      0.0    165.6       89    100.3    100.3      100     0.000     0.000     0.000     0.000      135        0        0        0       18        0        0    18.983       99     30.0    5.695     2.16        4       10     2069  1206_RCP45_net_15May_sandyloam.PRM
  Tot(54)       15        5     2070   1971.5    334.0   1558.9   524.00      8.1   1971.5      0.0   1699.9      0.0    170.4       95    108.7    108.7      100     0.000     0.000     0.000     0.000      128        0        0        0       13        0        0    18.861       99     30.0    5.658     2.04       26        9     2070  1206_RCP45_net_15May_sandyloam.PRM
  Tot(55)       15        5     2071   1318.6    323.6   1561.5   525.00      0.0   1318.6      0.0   1045.8      0.0    174.8       97     96.0     96.0      100     0.000     0.000     0.000     0.000      129        0        0        0       14        0        0    18.933       99     30.0    5.680     2.11       27        9     2071  1206_RCP45_net_15May_sandyloam.PRM
  Tot(56)       15        5     2072   1641.9    318.7   1563.3   527.00      5.8   1641.9      0.0   1378.5      0.0    172.1       96     95.6     95.6      100     0.000     0.000     0.000     0.000      128        0        0        0       14        0        0    18.663       99     30.0    5.599     2.10       26        9     2072  1206_RCP45_net_15May_sandyloam.PRM
  Tot(57)       15        5     2073   1613.9    312.2   1561.9   527.00     25.4   1613.9      0.0   1391.1      0.0    154.0       84     96.6     96.6      100     0.000     0.000     0.000     0.000      122        0        0        0       11        0        0    18.590       99     30.0    5.577     2.24       19        9     2073  1206_RCP45_net_15May_sandyloam.PRM
  Tot(58)       15        5     2074   1601.8    309.9   1560.6   528.00      0.0   1601.8      0.0   1365.6      0.0    148.9       94     92.5     92.5      100     0.000     0.000     0.000     0.000      141        0        0        0       20        0        0    19.025       99     30.0    5.707     2.38        9       10     2074  1206_RCP45_net_15May_sandyloam.PRM
  Tot(59)       15        5     2075   1419.6    349.5   1561.0   529.00      6.8   1419.6      0.0   1140.7      0.0    174.1       95    111.3    111.3      100     0.000     0.000     0.000     0.000      126        0        0        0       13        0        0    18.735       99     30.0    5.620     1.98       24        9     2075  1206_RCP45_net_15May_sandyloam.PRM
  Tot(60)       15        5     2076   1388.2    311.3   1562.4   530.00      0.0   1388.2      0.0   1134.9      0.0    157.7       98     95.8     95.8      100     0.000     0.000     0.000     0.000      134        0        0        0       16        0        0    19.051       99     30.0    5.715     2.28        2       10     2076  1206_RCP45_net_15May_sandyloam.PRM
  Tot(61)       15        5     2077   2000.8    342.0   1563.1   530.00     13.2   2000.8      0.0   1755.8      0.0    163.6       96    100.7    100.7      100     0.000     0.000     0.000     0.000      137        0        0        0       19        0        0    19.034       99     30.0    5.710     2.18        5       10     2077  1206_RCP45_net_15May_sandyloam.PRM
  Tot(62)       15        5     2078   1845.1    321.4   1557.5   531.00     30.0   1845.1      0.0   1628.0      0.0    158.6       87     95.5     95.5      100     0.000     0.000     0.000     0.000      127        0        0        0       13        0       -0    18.882       99     30.0    5.665     2.24       24        9     2078  1206_RCP45_net_15May_sandyloam.PRM
  Tot(63)       15        5     2079   1527.3    330.8   1566.4   531.00     54.9   1527.3      0.0   1334.5      0.0    167.6       80     86.9     86.9      100     0.000     0.000     0.000     0.000      125        0        0        0       12        0        0    18.908       99     30.0    5.672     2.24       22        9     2079  1206_RCP45_net_15May_sandyloam.PRM
  Tot(64)       15        5     2080   1717.0    357.9   1562.5   531.00     63.3   1717.0      0.0   1513.4      0.0    174.1       85    101.9    101.9      100     0.000     0.000     0.000     0.000      125        0        0        0       12        0        0    18.940       99     30.0    5.682     2.06       22        9     2080  1206_RCP45_net_15May_sandyloam.PRM
  Tot(65)       15        5     2081   1821.0    310.0   1559.9   531.00     12.5   1821.0      0.0   1593.8      0.0    149.3       87     93.3     93.3      100     0.000     0.000     0.000     0.000      131        0        0        0       15        0        0    18.986       99     30.0    5.696     2.37       28        9     2081  1206_RCP45_net_15May_sandyloam.PRM
  Tot(66)       15        5     2082   1683.5    365.6   1560.6   531.00     85.8   1683.5      0.0   1491.5      0.0    171.1       79    105.5    105.5      100     0.000     0.000     0.000     0.000      128        0        0        0       13        0        0    19.000       99     30.0    5.700     2.07       26        9     2082  1206_RCP45_net_15May_sandyloam.PRM
  Tot(67)       15        5     2083   1037.6    379.3   1559.6   532.00     64.2   1037.6      0.0    824.1      0.0    173.0       78    112.6    112.6      100     0.000     0.000     0.000     0.000      118        0        0        0        9        0        0    18.627       99     30.0    5.588     1.96       15        9     2083  1206_RCP45_net_15May_sandyloam.PRM
  Tot(68)       15        5     2084   1554.3    327.7   1565.6   532.00     16.2   1554.3      0.0   1328.3      0.0    142.1       78    106.0    106.0      100     0.000     0.000     0.000     0.000      127        0        0        0       12        0        0    18.835       99     30.0    5.650     2.29       24        9     2084  1206_RCP45_net_15May_sandyloam.PRM
  Tot(69)       15        5     2085   1784.9    329.4   1557.8   532.00     23.1   1784.9      0.0   1543.0      0.0    168.6       89     99.0     99.0      100     0.000     0.000     0.000     0.000      125        0        0        0       13        0        0    18.751       99     30.0    5.625     2.12       22        9     2085  1206_RCP45_net_15May_sandyloam.PRM
  Tot(70)       15        5     2086   1455.7    343.3   1557.7   532.00     36.1   1455.7      0.0   1239.3      0.0    158.5       83     97.0     97.0      100     0.000     0.000     0.000     0.000      133        0        0        0       18        0        0    18.978       99     30.0    5.693     2.25       30        9     2086  1206_RCP45_net_15May_sandyloam.PRM
  Tot(71)       15        5     2087   1685.7    325.4   1563.0   533.00      9.3   1685.7      0.0   1431.4      0.0    171.9       96     94.0     94.0      100     0.000     0.000     0.000     0.000      130        0        0        0       15        0        0    18.822       99     30.0    5.647     2.13       27        9     2087  1206_RCP45_net_15May_sandyloam.PRM
  Tot(72)       15        5     2088   1360.8    326.2   1560.6   533.00     40.6   1360.8      0.0   1158.9      0.0    145.3       85     99.7     99.7      100     0.000     0.000     0.000     0.000      142        0        0        0       23        0        0    18.977       99     30.0    5.693     2.34        9       10     2088  1206_RCP45_net_15May_sandyloam.PRM
  Tot(73)       15        5     2089   1522.4    361.2   1561.3   533.00     47.8   1522.4      0.0   1276.2      0.0    168.2       83    107.5    107.5      100     0.000     0.000     0.000     0.000      125        0        0        0       13        0        0    18.808       99     30.0    5.642     2.05       22        9     2089  1206_RCP45_net_15May_sandyloam.PRM
  Tot(74)       15        5     2090   1898.5    325.5   1557.4   534.00      0.0   1898.5      0.0   1661.7      0.0    148.7       97     97.4     97.4      100     0.000     0.000     0.000     0.000      145        0        0        0       25        0        0    18.937      100     30.0    5.681     2.31       14       10     2090  1206_RCP45_net_15May_sandyloam.PRM
  Tot(75)       15        5     2091   1914.3    308.6   1563.4   534.00     23.9   1914.3      0.0   1693.0      0.0    159.0       89     92.5     92.5      100     0.000     0.000     0.000     0.000      125        0        0        0       12        0        0    18.655       99     30.0    5.596     2.24       22        9     2091  1206_RCP45_net_15May_sandyloam.PRM
  Tot(76)       15        5     2092   1813.4    316.2   1561.8   535.00     12.6   1813.4      0.0   1587.9      0.0    144.0       96    104.1    104.1      100     0.000     0.000     0.000     0.000      139        0        0        0       20        0        0    18.998       99     30.0    5.699     2.32        7       10     2092  1206_RCP45_net_15May_sandyloam.PRM
  Tot(77)       15        5     2093   1423.2    312.0   1565.1   535.00     21.4   1423.2      0.0   1195.7      0.0    162.3       88     88.2     88.2      100     0.000     0.000     0.000     0.000      125        0        0        0       12        0        0    18.766       99     30.0    5.630     2.26       23        9     2093  1206_RCP45_net_15May_sandyloam.PRM
  Tot(78)       15        5     2094   1400.0    327.8   1557.2   535.00     28.1   1400.0      0.0   1182.7      0.0    159.1       86     88.6     88.6      100     0.000     0.000     0.000     0.000      134        0        0        0       18        0        0    18.906       99     30.0    5.672     2.29       30        9     2094  1206_RCP45_net_15May_sandyloam.PRM
  Tot(79)       15        5     2095   1424.1    352.1   1558.9   536.00     26.6   1424.1      0.0   1183.6      0.0    168.4       83    103.9    103.9      100     0.000     0.000     0.000     0.000      128        0        0        0       15        0        0    18.948       99     30.0    5.684     2.10       25        9     2095  1206_RCP45_net_15May_sandyloam.PRM
  Tot(80)       15        5     2096   1179.6    337.5   1565.5   536.00     26.2   1179.6      0.0    966.3      0.0    157.6       83     90.6     90.6      100     0.000     0.000     0.000     0.000      128        0        0        0       15        0        0    18.767       99     30.0    5.630     2.27       25        9     2096  1206_RCP45_net_15May_sandyloam.PRM
  Tot(81)       15        5     2097   1397.4    343.1   1565.7   537.00     44.3   1397.4      0.0   1179.6      0.0    167.8       84     98.2     98.2      100     0.000     0.000     0.000     0.000      126        0        0        0       13        0        0    18.716       99     30.0    5.615     2.13       23        9     2097  1206_RCP45_net_15May_sandyloam.PRM
  Tot(82)       15        5     2098   1923.7    331.0   1559.9   537.00     26.6   1923.7      0.0   1690.6      0.0    167.8       89     89.1     89.1      100     0.000     0.000     0.000     0.000      130        0        0        0       16        0       -0    18.841       99     30.0    5.652     2.21       28        9     2098  1206_RCP45_net_15May_sandyloam.PRM
  Tot(83)       15        5     2099   1127.1    361.3   1557.3   538.00     43.2   1127.1      0.0    897.5      0.0    166.2       91    108.8    108.8      100     0.000     0.000     0.000     0.000      135        0        0        0       19        0        0    19.021       99     30.0    5.706     2.07        2       10     2099  1206_RCP45_net_15May_sandyloam.PRM
