AquaCrop 6.0 (March 2017) - Output created on (date) : 28/06/2021   at (time) : 14:04:56

    RunNr     Day1   Month1    Year1     Rain      ETo       GD     CO2      Irri   Infilt   Runoff    Drain   Upflow        E     E/Ex       Tr      TrW   Tr/Trx    SaltIn   SaltOut    SaltUp  SaltProf     Cycle   SaltStr  FertStr  WeedStr  TempStr   ExpStr   StoStr  BioMass  Brelative   HI     Yield     WPet     DayN   MonthN    YearN
                                           mm       mm    °C.day    ppm        mm       mm       mm       mm       mm       mm        %       mm       mm        %    ton/ha    ton/ha    ton/ha    ton/ha      days       %        %        %        %        %        %    ton/ha        %       %    ton/ha    kg/m3
   Tot(1)       15        3     2017      8.4    661.7   1576.4   404.00    457.2      8.4      0.0      0.0      0.0    194.4       56    283.3    283.3      100     0.000     0.000     0.000     0.000       82        0        0        0        0        3        0    12.802       97     30.0    3.842     0.81       11        6     2017  1212_RCP45_net_15March_sandy.PRM
   Tot(2)       15        3     2018    197.1    584.6   1573.9   407.00    397.4    197.1      0.0    134.9      0.0    204.7       68    261.8    261.8      100     0.000     0.000     0.000     0.000       85        0        0        0        0        1        0    13.321       99     30.0    3.999     0.86       14        6     2018  1212_RCP45_net_15March_sandy.PRM
   Tot(3)       15        3     2019     20.1    656.9   1562.2   409.00    488.4     20.1      0.0      0.0      0.0    232.4       71    288.4    288.4      100     0.000     0.000     0.000     0.000       81        0        0        0        0        2        0    12.840       98     30.0    3.856     0.75        9        6     2019  1212_RCP45_net_15March_sandy.PRM
   Tot(4)       15        3     2020    129.7    624.5   1566.7   411.00    439.2    129.7      0.0     74.1      0.0    187.9       61    297.6    297.6      100     0.000     0.000     0.000     0.000       84        0        0        0        1        2        0    13.053       99     30.0    3.921     0.81       12        6     2020  1212_RCP45_net_15March_sandy.PRM
   Tot(5)       15        3     2021    378.1    450.6   1570.6   413.00    247.7    378.1      0.0    247.7      0.0    161.1       69    207.8    207.8      100     0.000     0.000     0.000     0.000       89        0        0        0        1        1        0    13.875       99     30.0    4.163     1.13       17        6     2021  1212_RCP45_net_15March_sandy.PRM
   Tot(6)       15        3     2022    154.3    563.5   1559.3   416.00    325.8    154.3      0.0     63.9      0.0    169.4       58    253.6    253.6      100     0.000     0.000     0.000     0.000       84        0        0        0        0        1        0    13.581       99     30.0    4.075     0.97       12        6     2022  1212_RCP45_net_15March_sandy.PRM
   Tot(7)       15        3     2023    213.4    530.6   1572.4   418.00    345.0    213.4      0.0    128.1      0.0    175.2       63    245.5    245.5      100     0.000     0.000     0.000     0.000       86        0        0        0        0        1        0    13.337       99     30.0    4.004     0.96       15        6     2023  1212_RCP45_net_15March_sandy.PRM
   Tot(8)       15        3     2024     46.4    611.8   1567.0   420.00    384.8     46.4      0.0      0.0      0.0    171.9       56    271.3    271.3      100     0.000     0.000     0.000     0.000       83        0        0        0        1        2        0    13.239       99     30.0    3.975     0.90       12        6     2024  1212_RCP45_net_15March_sandy.PRM
   Tot(9)       15        3     2025     14.3    715.7   1571.2   423.00    503.2     14.3      0.0      0.0      0.0    189.7       55    339.7    339.7      100     0.000     0.000     0.000     0.000       82        0        0        0        0        3        0    13.028       97     30.0    3.913     0.74       10        6     2025  1212_RCP45_net_15March_sandy.PRM
  Tot(10)       15        3     2026    125.1    581.9   1569.9   425.00    335.4    125.1      0.0     20.8      0.0    178.9       62    267.3    267.3      100     0.000     0.000     0.000     0.000       84        0        0        0        0        2        0    13.314       99     30.0    3.997     0.90       12        6     2026  1212_RCP45_net_15March_sandy.PRM
  Tot(11)       15        3     2027     25.8    649.3   1569.6   428.00    433.6     25.8      0.0      2.3      0.0    184.7       57    284.4    284.4      100     0.000     0.000     0.000     0.000       79        0        0        0        0        2        0    12.618       98     30.0    3.789     0.81        7        6     2027  1212_RCP45_net_15March_sandy.PRM
  Tot(12)       15        3     2028    146.8    549.9   1568.5   430.00    323.9    146.8      0.0     34.4      0.0    204.9       70    238.7    238.7      100     0.000     0.000     0.000     0.000       86        0        0        0        0        1        0    13.836       99     30.0    4.152     0.94       15        6     2028  1212_RCP45_net_15March_sandy.PRM
  Tot(13)       15        3     2029     25.7    601.1   1564.5   433.00    422.6     25.7      0.0      0.0      0.0    180.8       64    279.5    279.5      100     0.000     0.000     0.000     0.000       81        0        0        0        0        2        0    13.176       99     30.0    3.956     0.87        9        6     2029  1212_RCP45_net_15March_sandy.PRM
  Tot(14)       15        3     2030    104.8    558.6   1572.1   435.00    327.5    104.8      0.0     11.7      0.0    177.3       63    251.8    251.8      100     0.000     0.000     0.000     0.000       84        0        0        0        0        1        0    13.611       99     30.0    4.085     0.95       12        6     2030  1212_RCP45_net_15March_sandy.PRM
  Tot(15)       15        3     2031     67.0    604.6   1577.8   438.00    388.3     67.0      0.0      1.4      0.0    199.2       69    267.1    267.1      100     0.000     0.000     0.000     0.000       83        0        0        0        0        1        0    13.538       99     30.0    4.063     0.88       10        6     2031  1212_RCP45_net_15March_sandy.PRM
  Tot(16)       15        3     2032     28.1    602.0   1565.1   440.00    422.2     28.1      0.0      0.0      0.0    205.5       67    256.7    256.7      100     0.000     0.000     0.000     0.000       80        0        0        0        0        2        0    13.104       99     30.0    3.932     0.86        9        6     2032  1212_RCP45_net_15March_sandy.PRM
  Tot(17)       15        3     2033    186.0    590.5   1561.0   443.00    373.5    186.0      0.0     96.5      0.0    179.4       61    270.5    270.5      100     0.000     0.000     0.000     0.000       81        0        0        0        0        2        0    13.079       99     30.0    3.927     0.88       10        6     2033  1212_RCP45_net_15March_sandy.PRM
  Tot(18)       15        3     2034    171.6    518.8   1566.3   445.00    338.2    171.6      0.0     85.6      0.0    180.1       69    236.1    236.1      100     0.000     0.000     0.000     0.000       84        0        0        0        0        1        0    13.525       99     30.0    4.060     0.98       12        6     2034  1212_RCP45_net_15March_sandy.PRM
  Tot(19)       15        3     2035     99.1    556.0   1561.7   448.00    338.8     99.1      0.0     31.3      0.0    159.7       57    255.7    255.7      100     0.000     0.000     0.000     0.000       81        0        0        0        0        1        0    13.154       99     30.0    3.949     0.95        9        6     2035  1212_RCP45_net_15March_sandy.PRM
  Tot(20)       15        3     2036    126.4    568.8   1570.5   450.00    288.7    126.4      0.0     20.2      0.0    171.0       56    235.1    235.1      100     0.000     0.000     0.000     0.000       82        0        0        0        0        2        0    13.353       98     30.0    4.007     0.99       10        6     2036  1212_RCP45_net_15March_sandy.PRM
  Tot(21)       15        3     2037     83.5    547.1   1562.7   453.00    398.6     83.5      0.0     24.3      0.0    177.5       72    277.8    277.8      100     0.000     0.000     0.000     0.000       82        0        0        0        0        1        0    13.359       99     30.0    4.012     0.89       10        6     2037  1212_RCP45_net_15March_sandy.PRM
  Tot(22)       15        3     2038    138.7    570.9   1557.1   456.00    293.2    138.7      0.0     40.4      0.0    143.8       50    256.2    256.2      100     0.000     0.000     0.000     0.000       84        0        0        0        0        2        0    13.855       99     30.0    4.157     1.04       11        6     2038  1212_RCP45_net_15March_sandy.PRM
  Tot(23)       15        3     2039    129.5    495.9   1560.4   458.00    280.3    129.5      0.0     12.4      0.0    176.1       68    221.7    221.7      100     0.000     0.000     0.000     0.000       84        0        0        0        0        1        0    13.818       99     30.0    4.147     1.04       12        6     2039  1212_RCP45_net_15March_sandy.PRM
  Tot(24)       15        3     2040     45.6    574.1   1560.2   461.00    363.4     45.6      0.0      2.8      0.0    168.3       58    249.6    249.6      100     0.000     0.000     0.000     0.000       80        0        0        0        0        2        0    13.197       99     30.0    3.961     0.96        8        6     2040  1212_RCP45_net_15March_sandy.PRM
  Tot(25)       15        3     2041     13.7    661.7   1561.5   463.00    463.2     13.7      0.0      0.0      0.0    201.6       60    288.1    288.1      100     0.000     0.000     0.000     0.000       81        0        0        0        0        3        0    12.887       98     30.0    3.870     0.80        9        6     2041  1212_RCP45_net_15March_sandy.PRM
  Tot(26)       15        3     2042     40.3    595.5   1577.1   466.00    383.3     40.3      0.0      0.0      0.0    184.6       63    250.7    250.7      100     0.000     0.000     0.000     0.000       82        0        0        0        0        1        0    13.283       99     30.0    3.986     0.92       10        6     2042  1212_RCP45_net_15March_sandy.PRM
  Tot(27)       15        3     2043    136.7    611.5   1565.4   469.00    423.3    136.7      0.0     82.9      0.0    186.5       64    292.9    292.9      100     0.000     0.000     0.000     0.000       82        0        0        0        0        2        0    12.953       99     30.0    3.891     0.81       10        6     2043  1212_RCP45_net_15March_sandy.PRM
  Tot(28)       15        3     2044    154.5    584.3   1572.9   471.00    401.3    154.5      0.0     88.6      0.0    195.5       65    264.3    264.3      100     0.000     0.000     0.000     0.000       81        0        0        0        0        2        0    12.859       98     15.6    2.007     0.44        9        6     2044  1212_RCP45_net_15March_sandy.PRM
  Tot(29)       15        3     2045    278.4    479.6   1564.0   474.00    230.0    278.4      0.0    137.5      0.0    170.4       72    210.3    210.3      100     0.000     0.000     0.000     0.000       85        0        0        0        0        0        0    14.291       99     30.0    4.290     1.14       12        6     2045  1212_RCP45_net_15March_sandy.PRM
  Tot(30)       15        3     2046    201.6    548.8   1559.1   476.00    349.8    201.6      0.0     65.3      0.0    182.5       65    254.3    254.3      100     0.000     0.000     0.000     0.000       85        0        0        0        1        1        0    13.600       99     30.0    4.083     0.94       13        6     2046  1212_RCP45_net_15March_sandy.PRM
  Tot(31)       15        3     2047    277.2    521.5   1557.2   479.00    321.6    277.2      0.0    166.3      0.0    162.6       61    246.9    246.9      100     0.000     0.000     0.000     0.000       84        0        0        0        0        1        0    13.364       99     30.0    4.011     0.98       11        6     2047  1212_RCP45_net_15March_sandy.PRM
  Tot(32)       15        3     2048     71.5    570.3   1558.2   481.00    354.9     71.5      0.0      4.5      0.0    165.8       59    264.2    264.2      100     0.000     0.000     0.000     0.000       80        0        0        0        0        2        0    13.243       99     30.0    3.977     0.93        8        6     2048  1212_RCP45_net_15March_sandy.PRM
  Tot(33)       15        3     2049     25.5    613.2   1568.9   484.00    451.7     25.5      0.0      0.0      0.0    233.3       76    255.8    255.8      100     0.000     0.000     0.000     0.000       80        0        0        0        0        2        0    13.230       98     30.0    3.971     0.82        8        6     2049  1212_RCP45_net_15March_sandy.PRM
  Tot(34)       15        3     2050    202.2    531.7   1565.1   487.00    255.6    202.2      0.0     68.4      0.0    167.7       58    214.8    214.8      100     0.000     0.000     0.000     0.000       83        0        0        0        0        1        0    13.799       98     30.0    4.141     1.09       10        6     2050  1212_RCP45_net_15March_sandy.PRM
  Tot(35)       15        3     2051     80.0    630.7   1575.7   489.00    409.3     80.0      0.0     29.7      0.0    182.5       59    288.4    288.4      100     0.000     0.000     0.000     0.000       80        0        0        0        0        2        0    12.915       98     30.0    3.879     0.83        8        6     2051  1212_RCP45_net_15March_sandy.PRM
  Tot(36)       15        3     2052     94.7    592.2   1565.3   492.00    405.0     94.7      0.0     50.1      0.0    185.9       66    275.2    275.2      100     0.000     0.000     0.000     0.000       80        0        0        0        0        1        0    12.933       99     30.0    3.883     0.85        8        6     2052  1212_RCP45_net_15March_sandy.PRM
  Tot(37)       15        3     2053    254.7    564.7   1566.7   494.00    357.3    254.7      0.0    182.8      0.0    168.9       58    264.0    264.0      100     0.000     0.000     0.000     0.000       83        0        0        0        0        2        0    13.432       99     30.0    4.034     0.94       11        6     2053  1212_RCP45_net_15March_sandy.PRM
  Tot(38)       15        3     2054     61.7    600.3   1570.7   496.00    401.6     61.7      0.0     22.6      0.0    194.6       65    257.9    257.9      100     0.000     0.000     0.000     0.000       78        0        0        0        0        2        0    12.995       99     30.0    3.902     0.87        6        6     2054  1212_RCP45_net_15March_sandy.PRM
  Tot(39)       15        3     2055    173.3    559.3   1565.6   498.00    319.7    173.3      0.0     46.0      0.0    185.0       65    249.7    249.7      100     0.000     0.000     0.000     0.000       82        0        0        0        0        2        0    13.643       99     30.0    4.094     0.94       10        6     2055  1212_RCP45_net_15March_sandy.PRM
  Tot(40)       15        3     2056     97.0    546.1   1568.9   501.00    341.4     97.0      0.0     33.4      0.0    167.9       64    249.2    249.2      100     0.000     0.000     0.000     0.000       80        0        0        0        0        2        0    13.470       99     30.0    4.044     0.98        7        6     2056  1212_RCP45_net_15March_sandy.PRM
  Tot(41)       15        3     2057     48.1    614.0   1577.7   503.00    426.7     48.1      0.0     13.8      0.0    196.5       63    276.9    276.9      100     0.000     0.000     0.000     0.000       80        0        0        0        0        2        0    12.998       98     30.0    3.901     0.83        8        6     2057  1212_RCP45_net_15March_sandy.PRM
  Tot(42)       15        3     2058    205.5    528.1   1563.0   505.00    312.5    205.5      0.0     87.1      0.0    161.7       61    247.8    247.8      100     0.000     0.000     0.000     0.000       82        0        0        0        0        1        0    13.508       99     30.0    4.057     0.99       11        6     2058  1212_RCP45_net_15March_sandy.PRM
  Tot(43)       15        3     2059    483.2    515.9   1563.6   507.00    274.8    483.2      0.0    378.2      0.0    167.1       61    219.6    219.6      100     0.000     0.000     0.000     0.000       84        0        0        0        0        1        0    14.132       99     30.0    4.243     1.11       12        6     2059  1212_RCP45_net_15March_sandy.PRM
  Tot(44)       15        3     2060     74.0    548.9   1563.7   509.00    342.8     74.0      0.0      5.7      0.0    168.7       63    251.6    251.6      100     0.000     0.000     0.000     0.000       78        0        0        0        0        2        0    13.071       99     30.0    3.924     0.94        6        6     2060  1212_RCP45_net_15March_sandy.PRM
  Tot(45)       15        3     2061    131.5    567.3   1564.8   511.00    380.8    131.5      0.0     74.9      0.0    195.0       72    254.1    254.1      100     0.000     0.000     0.000     0.000       81        0        0        0        0        1        0    13.338       99     30.0    4.004     0.90        9        6     2061  1212_RCP45_net_15March_sandy.PRM
  Tot(46)       15        3     2062     64.2    603.1   1562.8   513.00    426.6     64.2      0.0     26.7      0.0    195.4       64    275.7    275.7      100     0.000     0.000     0.000     0.000       80        0        0        0        0        2        0    13.100       98     30.0    3.933     0.84        8        6     2062  1212_RCP45_net_15March_sandy.PRM
  Tot(47)       15        3     2063     91.3    586.4   1559.6   514.00    398.4     91.3      0.0     21.7      0.0    176.4       64    273.9    273.9      100     0.000     0.000     0.000     0.000       79        0        0        0        0        2        0    13.026       99     30.0    3.910     0.87        6        6     2063  1212_RCP45_net_15March_sandy.PRM
  Tot(48)       15        3     2064    161.9    574.6   1576.8   516.00    312.2    161.9      0.0     43.3      0.0    193.3       64    246.5    246.5      100     0.000     0.000     0.000     0.000       85        0        0        0        0        1        0    13.622       99     30.0    4.089     0.93       13        6     2064  1212_RCP45_net_15March_sandy.PRM
  Tot(49)       15        3     2065     60.8    605.8   1560.0   518.00    401.8     60.8      0.0     18.1      0.0    198.8       66    257.6    257.6      100     0.000     0.000     0.000     0.000       78        0        0        0        0        2        0    13.005       98     30.0    3.902     0.86        6        6     2065  1212_RCP45_net_15March_sandy.PRM
  Tot(50)       15        3     2066    218.8    565.6   1561.5   519.00    334.7    218.8      0.0    126.6      0.0    176.0       59    240.1    240.1      100     0.000     0.000     0.000     0.000       81        0        0        0        0        1        0    13.313       98     30.0    3.997     0.96        8        6     2066  1212_RCP45_net_15March_sandy.PRM
  Tot(51)       15        3     2067    119.8    565.9   1565.5   520.00    325.7    119.8      0.0     52.2      0.0    176.9       59    228.4    228.4      100     0.000     0.000     0.000     0.000       81        0        0        0        0        2        0    13.513       98     30.0    4.054     1.01        9        6     2067  1212_RCP45_net_15March_sandy.PRM
  Tot(52)       15        3     2068    121.8    578.0   1566.0   522.00    383.1    121.8      0.0     64.2      0.0    170.3       62    270.5    270.5      100     0.000     0.000     0.000     0.000       81        0        0        0        0        2        0    13.208       99     15.6    2.064     0.47        8        6     2068  1212_RCP45_net_15March_sandy.PRM
  Tot(53)       15        3     2069    162.6    539.4   1562.5   523.00    292.3    162.6      0.0     62.8      0.0    170.7       61    226.2    226.2      100     0.000     0.000     0.000     0.000       81        0        0        0        0        2        0    13.785       99     30.0    4.137     1.05        9        6     2069  1212_RCP45_net_15March_sandy.PRM
  Tot(54)       15        3     2070    241.0    491.2   1564.6   524.00    277.3    241.0      0.0    109.7      0.0    182.4       75    221.2    221.2      100     0.000     0.000     0.000     0.000       84        0        0        0        0        1        0    13.854       99     30.0    4.158     1.03       12        6     2070  1212_RCP45_net_15March_sandy.PRM
  Tot(55)       15        3     2071    167.3    576.3   1571.2   525.00    388.9    167.3      0.0    101.2      0.0    202.9       69    260.7    260.7      100     0.000     0.000     0.000     0.000       81        0        0        0        0        2        0    13.114       98     30.0    3.937     0.85        8        6     2071  1212_RCP45_net_15March_sandy.PRM
  Tot(56)       15        3     2072    138.6    582.6   1564.8   527.00    336.5    138.6      0.0     40.8      0.0    180.1       58    251.8    251.8      100     0.000     0.000     0.000     0.000       81        0        0        0        0        2        0    13.085       97     30.0    3.927     0.91        8        6     2072  1212_RCP45_net_15March_sandy.PRM
  Tot(57)       15        3     2073    141.1    585.1   1576.5   527.00    407.2    141.1      0.0     98.0      0.0    178.5       64    277.3    277.3      100     0.000     0.000     0.000     0.000       80        0        0        0        0        2        0    12.947       99     23.5    3.037     0.67        8        6     2073  1212_RCP45_net_15March_sandy.PRM
  Tot(58)       15        3     2074    434.8    449.9   1570.6   528.00    193.2    434.8      0.0    286.9      0.0    141.9       57    199.5    199.5      100     0.000     0.000     0.000     0.000       86        0        0        0        0        1        0    14.136       99     30.0    4.242     1.25       14        6     2074  1212_RCP45_net_15March_sandy.PRM
  Tot(59)       15        3     2075    353.4    531.3   1568.0   529.00    253.3    353.4      0.0    244.4      0.0    173.3       58    199.2    199.2      100     0.000     0.000     0.000     0.000       83        0        0        0        0        2        0    13.934       98     30.0    4.180     1.13       11        6     2075  1212_RCP45_net_15March_sandy.PRM
  Tot(60)       15        3     2076    221.3    529.4   1570.9   530.00    322.9    221.3      0.0     76.8      0.0    190.3       72    245.1    245.1      100     0.000     0.000     0.000     0.000       81        0        0        0        0        2        0    13.305       99     30.0    3.994     0.92        8        6     2076  1212_RCP45_net_15March_sandy.PRM
  Tot(61)       15        3     2077    241.6    536.2   1559.9   530.00    274.8    241.6      0.0    131.9      0.0    157.3       53    227.1    227.1      100     0.000     0.000     0.000     0.000       80        0        0        0        0        2        0    13.258       98     30.0    3.978     1.04        8        6     2077  1212_RCP45_net_15March_sandy.PRM
  Tot(62)       15        3     2078     37.6    598.0   1560.8   531.00    393.4     37.6      0.0      0.6      0.0    186.6       61    256.5    256.5      100     0.000     0.000     0.000     0.000       78        0        0        0        0        2        0    12.750       98     30.0    3.829     0.87        5        6     2078  1212_RCP45_net_15March_sandy.PRM
  Tot(63)       15        3     2079    119.4    550.8   1568.9   531.00    347.4    119.4      0.0     42.7      0.0    177.1       68    247.9    247.9      100     0.000     0.000     0.000     0.000       79        0        0        0        0        1        0    13.192       99     30.0    3.962     0.94        7        6     2079  1212_RCP45_net_15March_sandy.PRM
  Tot(64)       15        3     2080     76.4    592.2   1567.9   531.00    356.4     76.4      0.0     21.9      0.0    181.1       59    241.4    241.4      100     0.000     0.000     0.000     0.000       78        0        0        0        0        2        0    13.121       99     30.0    3.937     0.94        6        6     2080  1212_RCP45_net_15March_sandy.PRM
  Tot(65)       15        3     2081    133.6    600.5   1557.1   531.00    370.7    133.6      0.0     43.8      0.0    181.2       59    267.5    267.5      100     0.000     0.000     0.000     0.000       79        0        0        0        0        3        0    12.709       98     30.0    3.815     0.85        5        6     2081  1212_RCP45_net_15March_sandy.PRM
  Tot(66)       15        3     2082    119.1    567.7   1559.0   531.00    324.2    119.1      0.0     49.0      0.0    176.1       61    229.9    229.9      100     0.000     0.000     0.000     0.000       79        0        0        0        0        2        0    13.494       99     30.0    4.049     1.01        6        6     2082  1212_RCP45_net_15March_sandy.PRM
  Tot(67)       15        3     2083     16.2    635.5   1567.7   532.00    436.9     16.2      0.0      0.0      0.0    192.1       61    273.2    273.2      100     0.000     0.000     0.000     0.000       76        0        0        0        0        3        0    12.452       97     30.0    3.740     0.81        3        6     2083  1212_RCP45_net_15March_sandy.PRM
  Tot(68)       15        3     2084    185.9    583.3   1571.5   532.00    370.9    185.9      0.0    136.1      0.0    158.3       51    261.6    261.6      100     0.000     0.000     0.000     0.000       79        0        0        0        0        2        0    12.595       98      5.7    0.718     0.17        7        6     2084  1212_RCP45_net_15March_sandy.PRM
  Tot(69)       15        3     2085    147.8    585.5   1558.2   532.00    385.7    147.8      0.0     93.1      0.0    190.4       62    251.6    251.6      100     0.000     0.000     0.000     0.000       77        0        0        0        0        2        0    12.678       98     30.0    3.806     0.87        5        6     2085  1212_RCP45_net_15March_sandy.PRM
  Tot(70)       15        3     2086    149.0    600.0   1568.4   532.00    415.6    149.0      0.0    109.5      0.0    189.3       61    259.5    259.5      100     0.000     0.000     0.000     0.000       77        0        0        0        0        2        0    12.254       97     30.0    3.679     0.83        4        6     2086  1212_RCP45_net_15March_sandy.PRM
  Tot(71)       15        3     2087     79.5    552.6   1567.1   533.00    367.1     79.5      0.0     23.2      0.0    185.9       66    244.5    244.5      100     0.000     0.000     0.000     0.000       79        0        0        0        0        2        0    12.843       99     30.0    3.857     0.90        6        6     2087  1212_RCP45_net_15March_sandy.PRM
  Tot(72)       15        3     2088    103.6    615.0   1557.8   533.00    441.0    103.6      0.0     58.1      0.0    185.7       62    290.0    290.0      100     0.000     0.000     0.000     0.000       78        0        0        0        0        3        0    12.329       98     21.0    2.589     0.55        5        6     2088  1212_RCP45_net_15March_sandy.PRM
  Tot(73)       15        3     2089     37.4    582.6   1571.3   533.00    378.7     37.4      0.0      0.0      0.0    183.3       62    245.1    245.1      100     0.000     0.000     0.000     0.000       77        0        0        0        0        2        0    12.731       98     30.0    3.822     0.90        4        6     2089  1212_RCP45_net_15March_sandy.PRM
  Tot(74)       15        3     2090    307.8    512.9   1571.8   534.00    320.8    307.8      0.0    203.3      0.0    163.5       58    224.6    224.6      100     0.000     0.000     0.000     0.000       82        0        0        0        0        2        0    13.199       98     30.0    3.963     1.02        9        6     2090  1212_RCP45_net_15March_sandy.PRM
  Tot(75)       15        3     2091    166.3    590.6   1561.5   534.00    415.7    166.3      0.0    126.4      0.0    174.5       58    269.1    269.1      100     0.000     0.000     0.000     0.000       78        0        0        0        0        2        0    12.332       98     15.7    1.940     0.44        6        6     2091  1212_RCP45_net_15March_sandy.PRM
  Tot(76)       15        3     2092    492.0    432.9   1563.2   535.00    202.0    492.0      0.0    333.0      0.0    164.9       67    185.4    185.4      100     0.000     0.000     0.000     0.000       85        0        0        0        0        1        0    14.023       99     30.0    4.207     1.20       12        6     2092  1212_RCP45_net_15March_sandy.PRM
  Tot(77)       15        3     2093     88.0    612.2   1574.4   535.00    358.4     88.0      0.0     20.9      0.0    174.8       56    255.8    255.8      100     0.000     0.000     0.000     0.000       77        0        0        0        0        2        0    12.752       98     14.1    1.798     0.42        5        6     2093  1212_RCP45_net_15March_sandy.PRM
  Tot(78)       15        3     2094    202.0    539.8   1562.5   535.00    312.2    202.0      0.0     74.1      0.0    183.4       66    234.9    234.9      100     0.000     0.000     0.000     0.000       79        0        0        0        0        1        0    13.133       99     30.0    3.941     0.94        6        6     2094  1212_RCP45_net_15March_sandy.PRM
  Tot(79)       15        3     2095     30.4    600.5   1569.0   536.00    425.1     30.4      0.0      0.0      0.0    207.3       71    260.2    260.2      100     0.000     0.000     0.000     0.000       77        0        0        0        0        2        0    12.574       99     16.5    2.073     0.45        5        6     2095  1212_RCP45_net_15March_sandy.PRM
  Tot(80)       15        3     2096    151.9    583.6   1558.3   536.00    343.3    151.9      0.0     88.8      0.0    163.8       55    254.7    254.7      100     0.000     0.000     0.000     0.000       76        0        0        0        0        2        0    12.584       98      9.7    1.218     0.29        4        6     2096  1212_RCP45_net_15March_sandy.PRM
  Tot(81)       15        3     2097     91.8    594.7   1563.7   537.00    378.6     91.8      0.0     11.9      0.0    185.0       61    255.9    255.9      100     0.000     0.000     0.000     0.000       78        0        0        0        0        2        0    12.708       98     30.0    3.815     0.87        5        6     2097  1212_RCP45_net_15March_sandy.PRM
  Tot(82)       15        3     2098     60.5    611.3   1557.2   537.00    397.2     60.5      0.0     11.5      0.0    189.0       60    263.4    263.4      100     0.000     0.000     0.000     0.000       77        0        0        0        0        3        0    12.683       97     30.0    3.807     0.84        3        6     2098  1212_RCP45_net_15March_sandy.PRM
  Tot(83)       15        3     2099    133.1    565.3   1568.8   538.00    323.9    133.1      0.0     25.1      0.0    176.9       62    239.7    239.7      100     0.000     0.000     0.000     0.000       78        0        0        0        0        1        0    13.098       98     30.0    3.931     0.95        5        6     2099  1212_RCP45_net_15March_sandy.PRM
