AquaCrop 6.0 (March 2017) - Output created on (date) : 28/06/2021   at (time) : 14:02:31

    RunNr     Day1   Month1    Year1     Rain      ETo       GD     CO2      Irri   Infilt   Runoff    Drain   Upflow        E     E/Ex       Tr      TrW   Tr/Trx    SaltIn   SaltOut    SaltUp  SaltProf     Cycle   SaltStr  FertStr  WeedStr  TempStr   ExpStr   StoStr  BioMass  Brelative   HI     Yield     WPet     DayN   MonthN    YearN
                                           mm       mm    °C.day    ppm        mm       mm       mm       mm       mm       mm        %       mm       mm        %    ton/ha    ton/ha    ton/ha    ton/ha      days       %        %        %        %        %        %    ton/ha        %       %    ton/ha    kg/m3
   Tot(1)       15        4     2017    425.0    576.7   1561.7   404.00    416.6    425.0      0.0    342.3      0.0    194.9       63    266.9    266.9      100     0.000     0.000     0.000     0.000       78        0        0        0        0        2        0    12.174       98     19.4    2.366     0.51        6        7     2017  1212_RCP45_net_15April_sandyloam.PRM
   Tot(2)       15        4     2018    526.0    501.0   1573.3   407.00    317.9    526.0      0.0    395.8      0.0    205.0       78    238.7    238.7      100     0.000     0.000     0.000     0.000       83        0        0        0        0        1        0    13.185       99     30.0    3.956     0.90       11        7     2018  1212_RCP45_net_15April_sandyloam.PRM
   Tot(3)       15        4     2019     34.4    634.5   1567.8   409.00    448.8     34.4      0.0      2.4      0.0    196.3       60    288.7    288.7      100     0.000     0.000     0.000     0.000       75        0        0        0        0        3        0    11.746       97      8.8    1.034     0.21        3        7     2019  1212_RCP45_net_15April_sandyloam.PRM
   Tot(4)       15        4     2020    307.2    548.6   1569.8   411.00    322.2    307.2      0.0    172.3      0.0    212.9       70    236.6    236.6      100     0.000     0.000     0.000     0.000       81        0        0        0        0        2        0    13.084       98     30.0    3.926     0.88        9        7     2020  1212_RCP45_net_15April_sandyloam.PRM
   Tot(5)       15        4     2021    961.7    345.9   1570.9   413.00    145.9    961.7      0.0    771.7      0.0    168.3       81    142.1    142.1      100     0.000     0.000     0.000     0.000       91        0        0        0        1        1        0    14.842       99     30.0    4.453     1.44       20        7     2021  1212_RCP45_net_15April_sandyloam.PRM
   Tot(6)       15        4     2022    911.0    448.3   1566.1   416.00    226.7    911.0      0.0    743.6      0.0    172.7       68    207.0    207.0      100     0.000     0.000     0.000     0.000       86        0        0        0        1        1        0    13.637       99     30.0    4.092     1.08       14        7     2022  1212_RCP45_net_15April_sandyloam.PRM
   Tot(7)       15        4     2023    729.9    418.1   1565.7   418.00    209.1    729.9      0.0    486.8      0.0    183.6       74    171.1    171.1      100     0.000     0.000     0.000     0.000       86        0        0        0        1        1        0    14.228       99     30.0    4.268     1.21       14        7     2023  1212_RCP45_net_15April_sandyloam.PRM
   Tot(8)       15        4     2024    229.6    526.2   1563.3   420.00    377.3    229.6      0.0    144.1      0.0    201.9       73    251.8    251.8      100     0.000     0.000     0.000     0.000       81        0        0        0        0        2        0    12.858       98     30.0    3.860     0.85        9        7     2024  1212_RCP45_net_15April_sandyloam.PRM
   Tot(9)       15        4     2025    128.8    622.8   1574.8   423.00    492.7    128.8      0.0     52.0      0.0    298.5       83    270.6    270.6      100     0.000     0.000     0.000     0.000       80        0        0        0        0        3        0    12.502       97     30.0    3.753     0.66        8        7     2025  1212_RCP45_net_15April_sandyloam.PRM
  Tot(10)       15        4     2026    363.5    529.4   1567.3   425.00    267.8    363.5      0.0    182.6      0.0    192.3       65    231.2    231.2      100     0.000     0.000     0.000     0.000       80        0        0        0        0        2        0    12.964       98     30.0    3.890     0.92        8        7     2026  1212_RCP45_net_15April_sandyloam.PRM
  Tot(11)       15        4     2027    175.5    593.7   1561.6   428.00    414.3    175.5      0.0     91.7      0.0    206.6       68    282.4    282.4      100     0.000     0.000     0.000     0.000       75        0        0        0        0        3        0    11.991       97     18.8    2.256     0.46        3        7     2027  1212_RCP45_net_15April_sandyloam.PRM
  Tot(12)       15        4     2028    657.7    447.0   1564.4   430.00    249.1    657.7      0.0    411.3      0.0    187.8       75    203.9    203.9      100     0.000     0.000     0.000     0.000       84        0        0        0        0        1        0    13.608       99     30.0    4.083     1.04       13        7     2028  1212_RCP45_net_15April_sandyloam.PRM
  Tot(13)       15        4     2029     40.9    619.1   1569.9   433.00    425.5     40.9      0.0      0.0      0.0    225.0       69    259.9    259.9      100     0.000     0.000     0.000     0.000       76        0        0        0        0        2        0    12.283       98     23.8    2.928     0.61        4        7     2029  1212_RCP45_net_15April_sandyloam.PRM
  Tot(14)       15        4     2030    994.4    445.2   1568.9   435.00    225.9    994.4      0.0    748.5      0.0    186.3       74    202.3    202.3      100     0.000     0.000     0.000     0.000       85        0        0        0        0        1        0    13.700       99     30.0    4.112     1.06       13        7     2030  1212_RCP45_net_15April_sandyloam.PRM
  Tot(15)       15        4     2031    255.0    605.6   1570.6   438.00    399.8    255.0      0.0    124.9      0.0    217.8       72    281.3    281.3      100     0.000     0.000     0.000     0.000       78        0        0        0        0        2        0    12.136       98     12.0    1.457     0.29        6        7     2031  1212_RCP45_net_15April_sandyloam.PRM
  Tot(16)       15        4     2032    204.0    559.6   1563.5   440.00    369.4    204.0      0.0     46.4      0.0    204.0       72    255.2    255.2      100     0.000     0.000     0.000     0.000       77        0        0        0        0        2        0    12.450       99     30.0    3.739     0.82        5        7     2032  1212_RCP45_net_15April_sandyloam.PRM
  Tot(17)       15        4     2033    411.2    487.7   1558.8   443.00    246.4    411.2      0.0    252.9      0.0    183.2       66    214.1    214.1      100     0.000     0.000     0.000     0.000       81        0        0        0        0        2        0    13.186       98     30.0    3.956     1.00        9        7     2033  1212_RCP45_net_15April_sandyloam.PRM
  Tot(18)       15        4     2034    722.4    392.5   1569.3   445.00    199.2    722.4      0.0    511.6      0.0    174.0       76    169.4    169.4      100     0.000     0.000     0.000     0.000       88        0        0        0        1        1        0    14.370       99     30.0    4.311     1.26       16        7     2034  1212_RCP45_net_15April_sandyloam.PRM
  Tot(19)       15        4     2035    140.8    550.2   1567.9   448.00    331.9    140.8      0.0     38.8      0.0    201.7       72    242.2    242.2      100     0.000     0.000     0.000     0.000       77        0        0        0        0        1        0    12.635       99     30.0    3.791     0.86        5        7     2035  1212_RCP45_net_15April_sandyloam.PRM
  Tot(20)       15        4     2036    700.6    421.7   1557.3   450.00    228.2    700.6      0.0    550.8      0.0    201.9       82    180.2    180.2      100     0.000     0.000     0.000     0.000       84        0        0        0        0        1        0    13.607       99     30.0    4.085     1.07       11        7     2036  1212_RCP45_net_15April_sandyloam.PRM
  Tot(21)       15        4     2037    394.4    487.0   1566.6   453.00    318.3    394.4      0.0    292.8      0.0    192.5       70    220.1    220.1      100     0.000     0.000     0.000     0.000       82        0        0        0        0        2        0    13.159       98     30.0    3.948     0.96       10        7     2037  1212_RCP45_net_15April_sandyloam.PRM
  Tot(22)       15        4     2038    973.7    480.6   1567.5   456.00    274.2    973.7      0.0    839.9      0.0    186.7       69    217.6    217.6      100     0.000     0.000     0.000     0.000       84        0        0        0        0        1        0    13.317       98     30.0    3.997     0.99       12        7     2038  1212_RCP45_net_15April_sandyloam.PRM
  Tot(23)       15        4     2039    428.8    400.3   1561.8   458.00    170.2    428.8      0.0    223.8      0.0    170.4       72    166.2    166.2      100     0.000     0.000     0.000     0.000       83        0        0        0        0        1        0    13.808       99     30.0    4.143     1.23       11        7     2039  1212_RCP45_net_15April_sandyloam.PRM
  Tot(24)       15        4     2040    549.4    467.2   1572.0   461.00    309.0    549.4      0.0    367.9      0.0    184.9       71    213.5    213.5      100     0.000     0.000     0.000     0.000       80        0        0        0        0        2        0    12.743       98     30.0    3.826     0.96        8        7     2040  1212_RCP45_net_15April_sandyloam.PRM
  Tot(25)       15        4     2041    101.4    621.4   1561.1   463.00    416.4    101.4      0.0     29.7      0.0    196.2       60    278.9    278.9      100     0.000     0.000     0.000     0.000       76        0        0        0        0        3        0    12.223       97     14.9    1.820     0.38        4        7     2041  1212_RCP45_net_15April_sandyloam.PRM
  Tot(26)       15        4     2042    122.6    541.4   1562.6   466.00    418.3    122.6      0.0     55.0      0.0    196.6       76    275.9    275.9      100     0.000     0.000     0.000     0.000       76        0        0        0        0        2        0    12.314       99     14.5    1.787     0.38        4        7     2042  1212_RCP45_net_15April_sandyloam.PRM
  Tot(27)       15        4     2043    360.8    536.6   1572.0   469.00    308.1    360.8      0.0    215.1      0.0    216.8       71    225.7    225.7      100     0.000     0.000     0.000     0.000       80        0        0        0        0        2        0    13.179       98     30.0    3.956     0.90        8        7     2043  1212_RCP45_net_15April_sandyloam.PRM
  Tot(28)       15        4     2044    681.0    439.0   1561.1   471.00    258.0    681.0      0.0    538.4      0.0    188.3       75    188.8    188.8      100     0.000     0.000     0.000     0.000       80        0        0        0        0        2        0    13.342       99     30.0    4.003     1.06        8        7     2044  1212_RCP45_net_15April_sandyloam.PRM
  Tot(29)       15        4     2045    745.4    399.4   1559.3   474.00    200.6    745.4      0.0    533.5      0.0    174.6       81    187.1    187.1      100     0.000     0.000     0.000     0.000       84        0        0        0        0        1        0    13.777       99     30.0    4.135     1.15       13        7     2045  1212_RCP45_net_15April_sandyloam.PRM
  Tot(30)       15        4     2046    826.6    406.9   1561.1   476.00    208.9    826.6      0.0    689.5      0.0    172.6       69    164.6    164.6      100     0.000     0.000     0.000     0.000       86        0        0        0        1        1        0    14.103       99     30.0    4.231     1.26       14        7     2046  1212_RCP45_net_15April_sandyloam.PRM
  Tot(31)       15        4     2047    613.1    394.5   1559.8   479.00    196.6    613.1      0.0    474.2      0.0    183.8       76    152.9    152.9      100     0.000     0.000     0.000     0.000       85        0        0        0        1        1        0    14.285       99     30.0    4.286     1.28       13        7     2047  1212_RCP45_net_15April_sandyloam.PRM
  Tot(32)       15        4     2048    344.7    462.2   1566.8   481.00    236.6    344.7      0.0    216.4      0.0    162.7       58    181.9    181.9      100     0.000     0.000     0.000     0.000       82        0        0        0        0        2        0    13.572       98     30.0    4.073     1.18       10        7     2048  1212_RCP45_net_15April_sandyloam.PRM
  Tot(33)       15        4     2049    324.5    558.7   1568.4   484.00    404.0    324.5      0.0    257.7      0.0    192.5       70    269.4    269.4      100     0.000     0.000     0.000     0.000       77        0        0        0        0        2        0    12.378       99     30.0    3.718     0.81        5        7     2049  1212_RCP45_net_15April_sandyloam.PRM
  Tot(34)       15        4     2050    730.5    387.2   1557.6   487.00    168.0    730.5      0.0    526.3      0.0    171.3       83    185.1    185.1      100     0.000     0.000     0.000     0.000       84        0        0        0        0        1        0    13.937       99     30.0    4.182     1.18       13        7     2050  1212_RCP45_net_15April_sandyloam.PRM
  Tot(35)       15        4     2051    463.8    524.6   1558.1   489.00    358.8    463.8      0.0    337.6      0.0    232.6       75    224.0    224.0      100     0.000     0.000     0.000     0.000       78        0        0        0        0        3        0    12.539       97     30.0    3.764     0.83        6        7     2051  1212_RCP45_net_15April_sandyloam.PRM
  Tot(36)       15        4     2052    481.3    513.9   1559.9   492.00    391.5    481.3      0.0    376.7      0.0    207.1       76    245.9    245.9      100     0.000     0.000     0.000     0.000       78        0        0        0        0        2        0    12.401       98     27.6    3.418     0.76        6        7     2052  1212_RCP45_net_15April_sandyloam.PRM
  Tot(37)       15        4     2053    623.8    457.5   1560.1   494.00    226.2    623.8      0.0    457.4      0.0    190.0       68    181.8    181.8      100     0.000     0.000     0.000     0.000       82        0        0        0        0        1        0    13.587       98     30.0    4.076     1.10       10        7     2053  1212_RCP45_net_15April_sandyloam.PRM
  Tot(38)       15        4     2054    736.6    482.6   1559.7   496.00    308.4    736.6      0.0    571.2      0.0    194.0       75    224.6    224.6      100     0.000     0.000     0.000     0.000       79        0        0        0        0        2        0    12.894       99     30.0    3.870     0.93        7        7     2054  1212_RCP45_net_15April_sandyloam.PRM
  Tot(39)       15        4     2055    372.6    505.4   1564.2   498.00    238.5    372.6      0.0    153.2      0.0    178.5       63    206.6    206.6      100     0.000     0.000     0.000     0.000       80        0        0        0        0        1        0    13.418       98     30.0    4.026     1.05        8        7     2055  1212_RCP45_net_15April_sandyloam.PRM
  Tot(40)       15        4     2056    789.3    465.9   1565.8   501.00    246.5    789.3      0.0    644.1      0.0    177.1       66    199.0    199.0      100     0.000     0.000     0.000     0.000       81        0        0        0        0        2        0    13.261       98     30.0    3.982     1.06        9        7     2056  1212_RCP45_net_15April_sandyloam.PRM
  Tot(41)       15        4     2057    747.8    470.0   1559.5   503.00    265.9    747.8      0.0    647.3      0.0    156.9       54    188.2    188.2      100     0.000     0.000     0.000     0.000       81        0        0        0        0        2        0    13.079       98     30.0    3.925     1.14        9        7     2057  1212_RCP45_net_15April_sandyloam.PRM
  Tot(42)       15        4     2058    707.3    412.6   1557.7   505.00    177.1    707.3      0.0    528.3      0.0    183.6       72    162.1    162.1      100     0.000     0.000     0.000     0.000       85        0        0        0        1        1        0    14.422       99     30.0    4.327     1.26       13        7     2058  1212_RCP45_net_15April_sandyloam.PRM
  Tot(43)       15        4     2059   1358.4    373.0   1565.6   507.00    158.9   1358.4      0.0   1141.2      0.0    169.7       78    162.8    162.8      100     0.000     0.000     0.000     0.000       88        0        0        0        1        1        0    14.238       99     30.0    4.273     1.29       16        7     2059  1212_RCP45_net_15April_sandyloam.PRM
  Tot(44)       15        4     2060   1026.3    438.9   1562.1   509.00    289.4   1026.3      0.0    904.8      0.0    207.3       77    182.0    182.0      100     0.000     0.000     0.000     0.000       80        0        0        0        0        1        0    13.111       98     23.8    3.119     0.81        8        7     2060  1212_RCP45_net_15April_sandyloam.PRM
  Tot(45)       15        4     2061    433.6    488.2   1559.8   511.00    338.6    433.6      0.0    350.7      0.0    193.0       73    226.9    226.9      100     0.000     0.000     0.000     0.000       79        0        0        0        0        2        0    12.711       99     30.0    3.815     0.91        7        7     2061  1212_RCP45_net_15April_sandyloam.PRM
  Tot(46)       15        4     2062    616.4    470.7   1570.2   513.00    266.5    616.4      0.0    486.8      0.0    183.8       65    196.6    196.6      100     0.000     0.000     0.000     0.000       81        0        0        0        0        2        0    13.085       98     30.0    3.927     1.03        9        7     2062  1212_RCP45_net_15April_sandyloam.PRM
  Tot(47)       15        4     2063    618.0    467.0   1569.9   514.00    284.9    618.0      0.0    507.9      0.0    183.8       65    188.4    188.4      100     0.000     0.000     0.000     0.000       81        0        0        0        0        2        0    13.417       98     30.0    4.026     1.08        9        7     2063  1212_RCP45_net_15April_sandyloam.PRM
  Tot(48)       15        4     2064   1012.5    448.3   1565.8   516.00    226.7   1012.5      0.0    860.5      0.0    175.3       68    198.9    198.9      100     0.000     0.000     0.000     0.000       83        0        0        0        0        1        0    13.538       99     30.0    4.063     1.09       11        7     2064  1212_RCP45_net_15April_sandyloam.PRM
  Tot(49)       15        4     2065    339.7    562.2   1571.5   518.00    388.1    339.7      0.0    245.5      0.0    183.1       64    273.6    273.6      100     0.000     0.000     0.000     0.000       76        0        0        0        0        2        0    12.234       98      4.0    0.492     0.11        4        7     2065  1212_RCP45_net_15April_sandyloam.PRM
  Tot(50)       15        4     2066    891.3    395.9   1568.7   519.00    220.3    891.3      0.0    700.3      0.0    179.7       81    177.3    177.3      100     0.000     0.000     0.000     0.000       84        0        0        0        1        2        0    13.789       99     30.0    4.137     1.16       12        7     2066  1212_RCP45_net_15April_sandyloam.PRM
  Tot(51)       15        4     2067   1157.1    457.4   1557.3   520.00    248.0   1157.1      0.0   1016.2      0.0    169.5       67    209.6    209.6      100     0.000     0.000     0.000     0.000       82        0        0        0        0        1        0    13.354       98     30.0    4.011     1.06        9        7     2067  1212_RCP45_net_15April_sandyloam.PRM
  Tot(52)       15        4     2068    450.0    478.5   1562.1   522.00    325.1    450.0      0.0    304.5      0.0    219.1       78    202.7    202.7      100     0.000     0.000     0.000     0.000       80        0        0        0        0        2        0    12.941       97     30.0    3.884     0.92        8        7     2068  1212_RCP45_net_15April_sandyloam.PRM
  Tot(53)       15        4     2069    936.0    390.0   1558.2   523.00    200.4    936.0      0.0    802.1      0.0    168.4       70    160.1    160.1      100     0.000     0.000     0.000     0.000       84        0        0        0        0        1        0    14.135       98     30.0    4.242     1.29       13        7     2069  1212_RCP45_net_15April_sandyloam.PRM
  Tot(54)       15        4     2070   1195.9    386.0   1571.6   524.00    192.6   1195.9      0.0    977.4      0.0    176.4       82    170.9    170.9      100     0.000     0.000     0.000     0.000       84        0        0        0        0        1        0    13.467       99     30.0    4.041     1.16       12        7     2070  1212_RCP45_net_15April_sandyloam.PRM
  Tot(55)       15        4     2071    528.2    451.6   1559.3   525.00    226.6    528.2      0.0    405.3      0.0    164.6       59    181.8    181.8      100     0.000     0.000     0.000     0.000       81        0        0        0        0        1        0    13.533       98     30.0    4.060     1.17        9        7     2071  1212_RCP45_net_15April_sandyloam.PRM
  Tot(56)       15        4     2072    578.2    421.3   1569.9   527.00    174.7    578.2      0.0    401.1      0.0    177.0       70    172.9    172.9      100     0.000     0.000     0.000     0.000       82        0        0        0        0        1        0    13.694       99     30.0    4.108     1.18       10        7     2072  1212_RCP45_net_15April_sandyloam.PRM
  Tot(57)       15        4     2073    750.7    481.1   1559.4   527.00    275.6    750.7      0.0    645.4      0.0    174.9       62    204.2    204.2      100     0.000     0.000     0.000     0.000       79        0        0        0        0        2        0    12.913       98     30.0    3.874     1.03        7        7     2073  1212_RCP45_net_15April_sandyloam.PRM
  Tot(58)       15        4     2074   1281.1    307.8   1569.4   528.00     83.7   1281.1      0.0   1090.0      0.0    152.2       76    111.1    111.1      100     0.000     0.000     0.000     0.000       89        0        0        0        0        0        0    15.169       99     30.0    4.551     1.73       17        7     2074  1212_RCP45_net_15April_sandyloam.PRM
  Tot(59)       15        4     2075    928.9    397.2   1566.8   529.00    148.7    928.9      0.0    735.9      0.0    155.6       71    177.7    177.7      100     0.000     0.000     0.000     0.000       82        0        0        0        0        1        0    13.602       99     30.0    4.082     1.23       10        7     2075  1212_RCP45_net_15April_sandyloam.PRM
  Tot(60)       15        4     2076    710.1    389.0   1561.6   530.00    128.9    710.1      0.0    544.9      0.0    146.3       56    136.2    136.2      100     0.000     0.000     0.000     0.000       83        0        0        0        0        1        0    14.141       98     30.0    4.243     1.51       11        7     2076  1212_RCP45_net_15April_sandyloam.PRM
  Tot(61)       15        4     2077   1286.2    369.7   1572.1   530.00    116.1   1286.2      0.0   1065.8      0.0    164.7       73    152.0    152.0      100     0.000     0.000     0.000     0.000       84        0        0        0        0        1        0    14.009       99     30.0    4.203     1.33       12        7     2077  1212_RCP45_net_15April_sandyloam.PRM
  Tot(62)       15        4     2078    362.1    454.0   1569.0   531.00    267.3    362.1      0.0    229.7      0.0    174.4       66    190.3    190.3      100     0.000     0.000     0.000     0.000       79        0        0        0        0        2        0    13.067       98     30.0    3.922     1.08        7        7     2078  1212_RCP45_net_15April_sandyloam.PRM
  Tot(63)       15        4     2079    544.9    466.2   1557.7   531.00    312.7    544.9      0.0    434.1      0.0    190.8       78    227.6    227.6      100     0.000     0.000     0.000     0.000       78        0        0        0        0        2        0    12.671       99     30.0    3.802     0.91        6        7     2079  1212_RCP45_net_15April_sandyloam.PRM
  Tot(64)       15        4     2080    568.3    451.8   1566.3   531.00    301.7    568.3      0.0    463.2      0.0    181.3       73    211.8    211.8      100     0.000     0.000     0.000     0.000       78        0        0        0        0        2        0    12.477       99     20.1    2.507     0.64        6        7     2080  1212_RCP45_net_15April_sandyloam.PRM
  Tot(65)       15        4     2081    681.2    428.3   1572.2   531.00    210.5    681.2      0.0    526.7      0.0    179.8       68    173.1    173.1      100     0.000     0.000     0.000     0.000       81        0        0        0        0        2        0    13.460       98     30.0    4.038     1.15        9        7     2081  1212_RCP45_net_15April_sandyloam.PRM
  Tot(66)       15        4     2082    825.1    402.8   1560.9   531.00    251.6    825.1      0.0    661.3      0.0    174.0       78    185.9    185.9      100     0.000     0.000     0.000     0.000       83        0        0        0        0        2        0    13.873       98     30.0    4.163     1.16       12        7     2082  1212_RCP45_net_15April_sandyloam.PRM
  Tot(67)       15        4     2083    401.1    556.3   1562.5   532.00    377.2    401.1      0.0    326.8      0.0    197.0       65    252.2    252.2      100     0.000     0.000     0.000     0.000       75        0        0        0        0        3        0    12.170       97      9.7    1.179     0.26        3        7     2083  1212_RCP45_net_15April_sandyloam.PRM
  Tot(68)       15        4     2084    989.6    419.6   1575.4   532.00    235.9    989.6      0.0    883.5      0.0    177.5       71    168.5    168.5      100     0.000     0.000     0.000     0.000       80        0        0        0        0        2        0    13.437       98     30.0    4.031     1.17        8        7     2084  1212_RCP45_net_15April_sandyloam.PRM
  Tot(69)       15        4     2085    629.0    454.5   1567.9   532.00    237.4    629.0      0.0    468.0      0.0    177.2       70    201.3    201.3      100     0.000     0.000     0.000     0.000       78        0        0        0        0        1       -0    12.933       99     30.0    3.880     1.03        6        7     2085  1212_RCP45_net_15April_sandyloam.PRM
  Tot(70)       15        4     2086   1026.8    417.4   1561.6   532.00    267.2   1026.8      0.0    919.6      0.0    172.9       69    178.2    178.2      100     0.000     0.000     0.000     0.000       80        0        0        0        0        2        0    13.403       98     30.0    4.021     1.15        8        7     2086  1212_RCP45_net_15April_sandyloam.PRM
  Tot(71)       15        4     2087    385.3    475.9   1562.6   533.00    243.4    385.3      0.0    194.7      0.0    186.6       71    198.4    198.4      100     0.000     0.000     0.000     0.000       77        0        0        0        0        1        0    13.005       99     30.0    3.904     1.02        5        7     2087  1212_RCP45_net_15April_sandyloam.PRM
  Tot(72)       15        4     2088    807.4    450.5   1570.2   533.00    267.0    807.4      0.0    725.6      0.0    175.4       60    173.0    173.0      100     0.000     0.000     0.000     0.000       81        0        0        0        0        2        0    13.569       98     30.0    4.071     1.17        9        7     2088  1212_RCP45_net_15April_sandyloam.PRM
  Tot(73)       15        4     2089    549.8    486.1   1567.1   533.00    318.2    549.8      0.0    444.5      0.0    188.8       72    222.1    222.1      100     0.000     0.000     0.000     0.000       75        0        0        0        0        2        0    12.216       98     14.2    1.736     0.42        3        7     2089  1212_RCP45_net_15April_sandyloam.PRM
  Tot(74)       15        4     2090   1260.0    332.8   1569.2   534.00    157.7   1260.0      0.0   1131.9      0.0    160.2       71    110.4    110.4      100     0.000     0.000     0.000     0.000       85        0        0        0        0        1        0    14.702       99     30.0    4.411     1.63       13        7     2090  1212_RCP45_net_15April_sandyloam.PRM
  Tot(75)       15        4     2091    634.5    490.0   1557.3   534.00    271.2    634.5      0.0    424.1      0.0    168.3       60    211.0    211.0      100     0.000     0.000     0.000     0.000       77        0        0        0        0        2        0    12.687       98     30.0    3.806     1.00        4        7     2091  1212_RCP45_net_15April_sandyloam.PRM
  Tot(76)       15        4     2092   1069.0    287.9   1574.4   535.00     57.7   1069.0      0.0    880.2      0.0    141.1       74    100.5    100.5      100     0.000     0.000     0.000     0.000       87        0        0        0        0        0        0    14.756       99     30.0    4.427     1.85       15        7     2092  1212_RCP45_net_15April_sandyloam.PRM
  Tot(77)       15        4     2093    531.5    451.9   1569.5   535.00    275.7    531.5      0.0    416.1      0.0    184.7       70    196.5    196.5      100     0.000     0.000     0.000     0.000       80        0        0        0        0        2        0    13.082       98     30.0    3.926     1.03        8        7     2093  1212_RCP45_net_15April_sandyloam.PRM
  Tot(78)       15        4     2094    621.7    399.0   1563.7   535.00    183.2    621.7      0.0    431.9      0.0    185.1       80    167.9    167.9      100     0.000     0.000     0.000     0.000       80        0        0        0        0        1        0    13.373       98     30.0    4.012     1.14        8        7     2094  1212_RCP45_net_15April_sandyloam.PRM
  Tot(79)       15        4     2095    638.1    475.0   1564.4   536.00    319.5    638.1      0.0    543.7      0.0    181.2       70    225.1    225.1      100     0.000     0.000     0.000     0.000       79        0        0        0        0        2        0    12.986       98     30.0    3.900     0.96        7        7     2095  1212_RCP45_net_15April_sandyloam.PRM
  Tot(80)       15        4     2096    455.2    441.4   1566.3   536.00    245.1    455.2      0.0    336.8      0.0    170.4       65    186.0    186.0      100     0.000     0.000     0.000     0.000       77        0        0        0        0        2        0    12.732       98     30.0    3.822     1.07        5        7     2096  1212_RCP45_net_15April_sandyloam.PRM
  Tot(81)       15        4     2097    832.4    442.3   1562.1   537.00    279.0    832.4      0.0    703.4      0.0    185.4       73    189.5    189.5      100     0.000     0.000     0.000     0.000       77        0        0        0        0        2        0    12.712       98     30.0    3.814     1.02        5        7     2097  1212_RCP45_net_15April_sandyloam.PRM
  Tot(82)       15        4     2098    498.6    481.2   1568.5   537.00    248.7    498.6      0.0    371.8      0.0    169.2       59    199.5    199.5      100     0.000     0.000     0.000     0.000       77        0        0        0        0        2        0    12.631       98     30.0    3.790     1.03        5        7     2098  1212_RCP45_net_15April_sandyloam.PRM
  Tot(83)       15        4     2099    705.7    397.9   1572.5   538.00    217.8    705.7      0.0    575.4      0.0    164.6       70    169.4    169.4      100     0.000     0.000     0.000     0.000       82        0        0        0        0        1        0    13.678       99     30.0    4.104     1.23       10        7     2099  1212_RCP45_net_15April_sandyloam.PRM
