AquaCrop 6.0 (March 2017) - Output created on (date) : 07/06/2021   at (time) : 20:11:59

    RunNr     Day1   Month1    Year1     Rain      ETo       GD     CO2      Irri   Infilt   Runoff    Drain   Upflow        E     E/Ex       Tr      TrW   Tr/Trx    SaltIn   SaltOut    SaltUp  SaltProf     Cycle   SaltStr  FertStr  WeedStr  TempStr   ExpStr   StoStr  BioMass  Brelative   HI     Yield     WPet     DayN   MonthN    YearN
                                           mm       mm    °C.day    ppm        mm       mm       mm       mm       mm       mm        %       mm       mm        %    ton/ha    ton/ha    ton/ha    ton/ha      days       %        %        %        %        %        %    ton/ha        %       %    ton/ha    kg/m3
   Tot(1)       15        4     2017    854.3    420.6   1557.0   407.00      0.0    854.3      0.0    560.9      0.0    102.8       37    144.3    144.3       94     0.000     0.000     0.000     0.000       87        0        0        0        0       17        2    12.067       85     30.0    3.622     1.47       14        7     2017  1212_RCP85_rainfed_15April_sandy.PRM
   Tot(2)       15        4     2018    981.1    446.2   1558.4   410.00      0.0    981.1      0.0    843.2      0.0     82.2       19     46.9     46.9       92     0.000     0.000     0.000     0.000       86        0        0        0        1       53        3     3.846       27     30.3    1.164     0.91       15        7     2018  1212_RCP85_rainfed_15April_sandy.PRM
   Tot(3)       15        4     2019    111.1    596.6   1573.5   413.00      0.0    111.1      0.0      0.7      0.0     96.3       17     46.9     46.9       81     0.000     0.000     0.000     0.000       77        0        0        0        0       58       17     2.168       17     28.6    0.619     0.44        6        7     2019  1212_RCP85_rainfed_15April_sandy.PRM
   Tot(4)       15        4     2020    470.9    475.6   1557.2   416.00      0.0    470.9      0.0    313.8      0.0    105.8       23     39.0     39.0       85     0.000     0.000     0.000     0.000       82        0        0        0        0       60        8     2.153       16     29.8    0.643     0.44        9        7     2020  1212_RCP85_rainfed_15April_sandy.PRM
   Tot(5)       15        4     2021    731.6    487.1   1567.0   419.00      0.0    731.6      0.0    547.5      0.0    111.8       24     36.6     36.6       86     0.000     0.000     0.000     0.000       85        0        0        0        1       62        7     1.939       14     29.8    0.579     0.39       13        7     2021  1212_RCP85_rainfed_15April_sandy.PRM
   Tot(6)       15        4     2022     37.3    666.7   1562.8   422.00      0.0     37.3      0.0      0.0      0.0     35.7        5     30.3     30.3       90     0.000     0.000     0.000     0.000       75        0        0        0        0       70       11     1.233       10     12.3    0.152     0.24        3        7     2022  1212_RCP85_rainfed_15April_sandy.PRM
   Tot(7)       15        4     2023    671.5    456.0   1560.0   425.00      0.0    671.5      0.0    501.7      0.0     99.6       23     58.1     58.1       97     0.000     0.000     0.000     0.000       86        0        0        0        1       47        2     4.747       34     30.0    1.425     0.91       15        7     2023  1212_RCP85_rainfed_15April_sandy.PRM
   Tot(8)       15        4     2024    684.7    456.0   1570.3   428.00      0.0    684.7      0.0    492.4      0.0     84.7       22     86.2     86.2       98     0.000     0.000     0.000     0.000       84        0        0        0        0       35        1     7.364       53     30.0    2.210     1.30       12        7     2024  1212_RCP85_rainfed_15April_sandy.PRM
   Tot(9)       15        4     2025    372.6    469.6   1559.5   431.00      0.0    372.6      0.0    206.9      0.0    108.2       24     38.6     38.6       81     0.000     0.000     0.000     0.000       82        0        0        0        0       59       10     2.005       15     30.8    0.617     0.42       10        7     2025  1212_RCP85_rainfed_15April_sandy.PRM
  Tot(10)       15        4     2026     71.2    597.6   1562.0   435.00      0.0     71.2      0.0      0.0      0.0     65.1       13     56.7     56.7       68     0.000     0.000     0.000     0.000       76        0        0        0        0       46       36     2.931       24      7.6    0.222     0.18        4        7     2026  1212_RCP85_rainfed_15April_sandy.PRM
  Tot(11)       15        4     2027    212.1    553.8   1559.8   438.00      0.0    212.1      0.0     30.9      0.0    121.1       23     37.6     37.6       85     0.000     0.000     0.000     0.000       81        0        0        0        0       60        8     1.651       12     28.8    0.475     0.30        9        7     2027  1212_RCP85_rainfed_15April_sandy.PRM
  Tot(12)       15        4     2028    419.7    515.1   1567.5   442.00      0.0    419.7      0.0    222.1      0.0     97.5       20     66.2     66.2       93     0.000     0.000     0.000     0.000       79        0        0        0        0       51        5     3.469       27     30.6    1.061     0.65        7        7     2028  1212_RCP85_rainfed_15April_sandy.PRM
  Tot(13)       15        4     2029    311.2    492.0   1570.9   445.00      0.0    311.2      0.0    101.5      0.0    112.3       26     48.7     48.7       76     0.000     0.000     0.000     0.000       79        0        0        0        0       52       10     2.852       22     30.5    0.871     0.54        7        7     2029  1212_RCP85_rainfed_15April_sandy.PRM
  Tot(14)       15        4     2030    314.5    522.7   1568.0   449.00      0.0    314.5      0.0    135.3      0.0    120.5       25     45.8     45.8       81     0.000     0.000     0.000     0.000       80        0        0        0        0       56       14     2.299       18     30.9    0.710     0.44        8        7     2030  1212_RCP85_rainfed_15April_sandy.PRM
  Tot(15)       15        4     2031    629.9    524.4   1558.4   452.00      0.0    629.9      0.0    415.7      0.0     94.1       20     51.7     51.7       73     0.000     0.000     0.000     0.000       80        0        0        0        0       56       15     2.658       21     20.3    0.539     0.37        9        7     2031  1212_RCP85_rainfed_15April_sandy.PRM
  Tot(16)       15        4     2032    482.7    507.5   1566.2   456.00      0.0    482.7      0.0    342.7      0.0     87.9       18     48.2     48.2       87     0.000     0.000     0.000     0.000       81        0        0        0        0       57        7     2.697       21     30.7    0.828     0.61        9        7     2032  1212_RCP85_rainfed_15April_sandy.PRM
  Tot(17)       15        4     2033    533.5    541.9   1569.2   460.00      0.0    533.5      0.0    401.2      0.0     78.1       15     38.1     38.1       87     0.000     0.000     0.000     0.000       80        0        0        0        0       64        6     1.878       15     29.6    0.556     0.48        8        7     2033  1212_RCP85_rainfed_15April_sandy.PRM
  Tot(18)       15        4     2034    824.5    457.5   1571.3   464.00      0.0    824.5      0.0    593.0      0.0     98.6       28     85.4     85.4       78     0.000     0.000     0.000     0.000       83        0        0        0        0       36        6     6.676       48     26.3    1.753     0.96       11        7     2034  1212_RCP85_rainfed_15April_sandy.PRM
  Tot(19)       15        4     2035    500.1    454.5   1570.7   468.00      0.0    500.1      0.0    195.0      0.0    116.6       32     93.8     93.8       95     0.000     0.000     0.000     0.000       83        0        0        0        0       38        4     6.958       51     30.0    2.088     1.00       11        7     2035  1212_RCP85_rainfed_15April_sandy.PRM
  Tot(20)       15        4     2036    435.6    429.3   1561.3   472.00      0.0    435.6      0.0    224.5      0.0     95.6       33    116.2    116.2       86     0.000     0.000     0.000     0.000       83        0        0        0        0       25        6     9.761       70     30.5    2.973     1.41       11        7     2036  1212_RCP85_rainfed_15April_sandy.PRM
  Tot(21)       15        4     2037    926.3    425.8   1572.3   476.00      0.0    926.3      0.0    758.1      0.0     93.4       24     65.1     65.1      100     0.000     0.000     0.000     0.000       86        0        0        0        0       40        0     6.942       48     30.0    2.086     1.33       14        7     2037  1212_RCP85_rainfed_15April_sandy.PRM
  Tot(22)       15        4     2038    839.9    411.3   1568.3   481.00      0.0    839.9      0.0    634.0      0.0     93.7       29     93.7     93.7       89     0.000     0.000     0.000     0.000       86        0        0        0        0       35        4     9.216       63     30.2    2.780     1.49       14        7     2038  1212_RCP85_rainfed_15April_sandy.PRM
  Tot(23)       15        4     2039    542.3    532.4   1572.7   485.00      0.0    542.3      0.0    307.1      0.0     79.6       20    118.3    118.3       80     0.000     0.000     0.000     0.000       80        0        0        0        0       38       12     6.497       50     29.4    1.910     0.97        8        7     2039  1212_RCP85_rainfed_15April_sandy.PRM
  Tot(24)       15        4     2040    932.3    472.8   1557.1   489.00      0.0    932.3      0.0    767.3      0.0    117.9       26     46.3     46.3       99     0.000     0.000     0.000     0.000       85        0        0        0        1       43        1     4.266       30     30.0    1.280     0.78       12        7     2040  1212_RCP85_rainfed_15April_sandy.PRM
  Tot(25)       15        4     2041    612.9    512.8   1566.8   494.00      0.0    612.9      0.0    433.7      0.0     94.9       20     47.7     47.7       78     0.000     0.000     0.000     0.000       80        0        0        0        0       55       10     2.504       19     30.7    0.770     0.54        8        7     2041  1212_RCP85_rainfed_15April_sandy.PRM
  Tot(26)       15        4     2042    315.7    479.4   1562.9   499.00      0.0    315.7      0.0    127.8      0.0    114.8       30     65.6     65.6       68     0.000     0.000     0.000     0.000       81        0        0        0        0       49       14     3.825       28     30.3    1.160     0.65        9        7     2042  1212_RCP85_rainfed_15April_sandy.PRM
  Tot(27)       15        4     2043    821.8    411.0   1564.3   504.00      0.0    821.8      0.0    618.1      0.0     91.5       30     95.9     95.9       83     0.000     0.000     0.000     0.000       85        0        0        0        0       34        6     9.517       65     30.0    2.858     1.54       13        7     2043  1212_RCP85_rainfed_15April_sandy.PRM
  Tot(28)       15        4     2044    673.5    431.4   1559.6   508.00      0.0    673.5      0.0    463.6      0.0     86.5       21     56.5     56.5       98     0.000     0.000     0.000     0.000       82        0        0        0        0       46        2     4.422       32     30.2    1.335     0.94       10        7     2044  1212_RCP85_rainfed_15April_sandy.PRM
  Tot(29)       15        4     2045    578.6    450.0   1565.8   513.00      0.0    578.6      0.0    411.6      0.0    100.5       23     44.1     44.1       97     0.000     0.000     0.000     0.000       83        0        0        0        1       49        2     4.182       29     30.0    1.255     0.88       11        7     2045  1212_RCP85_rainfed_15April_sandy.PRM
  Tot(30)       15        4     2046    311.2    600.6   1565.7   519.00      0.0    311.2      0.0    185.9      0.0     53.4        9     31.3     31.3       90     0.000     0.000     0.000     0.000       73        0        0        0        0       68        9     1.333       11      0.9    0.012     0.01        1        7     2046  1212_RCP85_rainfed_15April_sandy.PRM
  Tot(31)       15        4     2047    523.3    509.2   1565.7   524.00      0.0    523.3      0.0    346.5      0.0    104.0       21     34.3     34.3       87     0.000     0.000     0.000     0.000       79        0        0        0        0       65        6     1.748       13     28.7    0.502     0.37        7        7     2047  1212_RCP85_rainfed_15April_sandy.PRM
  Tot(32)       15        4     2048    819.0    427.7   1565.1   529.00      0.0    819.0      0.0    634.8      0.0    122.3       32     57.4     57.4       91     0.000     0.000     0.000     0.000       83        0        0        0        0       46        5     5.262       37     30.0    1.579     0.89       11        7     2048  1212_RCP85_rainfed_15April_sandy.PRM
  Tot(33)       15        4     2049    641.2    451.9   1571.8   535.00      0.0    641.2      0.0    372.2      0.0    102.3       32    138.4    138.4       95     0.000     0.000     0.000     0.000       84        0        0        0        1       28        2    10.400       74     30.5    3.172     1.33       12        7     2049  1212_RCP85_rainfed_15April_sandy.PRM
  Tot(34)       15        4     2050    465.3    435.7   1561.1   541.00      0.0    465.3      0.0    229.9      0.0    114.7       36    107.2    107.2       94     0.000     0.000     0.000     0.000       83        0        0        0        0       34        4     8.685       61     30.1    2.616     1.19       12        7     2050  1212_RCP85_rainfed_15April_sandy.PRM
  Tot(35)       15        4     2051    433.3    486.6   1564.6   546.00      0.0    433.3      0.0    283.5      0.0     84.5       19     38.3     38.3       77     0.000     0.000     0.000     0.000       51        0        0        0        0       54       21     2.014       16     -9.9    0.000     0.00        7        7     2051  1212_RCP85_rainfed_15April_sandy.PRM
  Tot(36)       15        4     2052    602.0    542.0   1558.3   552.00      0.0    602.0      0.0    417.1      0.0     85.9       21     63.7     63.7       65     0.000     0.000     0.000     0.000       59        0        0        0        0       43       26     3.583       28      4.7    0.170     0.13        4        7     2052  1212_RCP85_rainfed_15April_sandy.PRM
  Tot(37)       15        4     2053    482.4    474.5   1561.8   558.00      0.0    482.4      0.0    287.4      0.0    103.3       26     79.0     79.0       84     0.000     0.000     0.000     0.000       81        0        0        0        0       43        6     5.540       41     30.6    1.695     0.93        9        7     2053  1212_RCP85_rainfed_15April_sandy.PRM
  Tot(38)       15        4     2054    711.6    486.6   1562.0   564.00      0.0    711.6      0.0    539.9      0.0    104.3       22     38.4     38.4       93     0.000     0.000     0.000     0.000       79        0        0        0        0       59        3     2.494       19     30.7    0.765     0.54        7        7     2054  1212_RCP85_rainfed_15April_sandy.PRM
  Tot(39)       15        4     2055    208.5    485.6   1568.8   571.00      0.0    208.5      0.0     46.5      0.0     84.3       23     69.5     69.5       72     0.000     0.000     0.000     0.000       64        0        0        0        0       42       23     4.399       34     16.7    0.737     0.56        5        7     2055  1212_RCP85_rainfed_15April_sandy.PRM
  Tot(40)       15        4     2056   1225.4    386.6   1558.2   577.00      0.0   1225.4      0.0   1054.0      0.0     86.1       32     83.4     83.4       77     0.000     0.000     0.000     0.000       84        0        0        0        0       34        8     7.288       52     30.3    2.209     1.32       12        7     2056  1212_RCP85_rainfed_15April_sandy.PRM
  Tot(41)       15        4     2057    659.0    467.3   1565.9   583.00      0.0    659.0      0.0    479.1      0.0     99.7       22     35.4     35.4       90     0.000     0.000     0.000     0.000       78        0        0        0        0       60        5     2.156       17     28.3    0.610     0.46        6        7     2057  1212_RCP85_rainfed_15April_sandy.PRM
  Tot(42)       15        4     2058    390.1    455.5   1570.2   590.00      0.0    390.1      0.0    195.8      0.0     85.9       22     87.7     87.7      100     0.000     0.000     0.000     0.000       80        0        0        0        0       38        0     6.796       50     30.1    2.042     1.19        8        7     2058  1212_RCP85_rainfed_15April_sandy.PRM
  Tot(43)       15        4     2059    661.7    506.9   1559.9   597.00      0.0    661.7      0.0    479.0      0.0     94.8       22     60.3     60.3       75     0.000     0.000     0.000     0.000       76        0        0        0        0       49       15     2.947       23     30.3    0.893     0.58        5        7     2059  1212_RCP85_rainfed_15April_sandy.PRM
  Tot(44)       15        4     2060    677.2    482.3   1572.5   604.00      0.0    677.2      0.0    476.7      0.0    104.9       25     49.2     49.2       75     0.000     0.000     0.000     0.000       52        0        0        0        0       49       21     2.407       19      3.8    0.093     0.09        7        7     2060  1212_RCP85_rainfed_15April_sandy.PRM
  Tot(45)       15        4     2061    453.9    482.6   1559.2   611.00      0.0    453.9      0.0    290.7      0.0     93.3       22     52.5     52.5       75     0.000     0.000     0.000     0.000       77        0        0        0        0       51       13     2.965       23      4.3    0.128     0.09        5        7     2061  1212_RCP85_rainfed_15April_sandy.PRM
  Tot(46)       15        4     2062    656.9    426.8   1563.4   618.00      0.0    656.9      0.0    432.1      0.0    126.1       40     68.4     68.4       66     0.000     0.000     0.000     0.000       81        0        0        0        0       43       21     4.386       33     29.9    1.312     0.68        9        7     2062  1212_RCP85_rainfed_15April_sandy.PRM
  Tot(47)       15        4     2063    895.2    377.2   1570.5   625.00      0.0    895.2      0.0    691.1      0.0     94.6       33     96.6     96.6      100     0.000     0.000     0.000     0.000       84        0        0        0        0       16        0    11.277       78     30.0    3.383     1.78       12        7     2063  1212_RCP85_rainfed_15April_sandy.PRM
  Tot(48)       15        4     2064    379.7    506.9   1574.6   632.00      0.0    379.7      0.0    240.8      0.0     94.4       20     39.4     39.4       80     0.000     0.000     0.000     0.000       77        0        0        0        0       56       10     2.010       16     15.3    0.308     0.24        5        7     2064  1212_RCP85_rainfed_15April_sandy.PRM
  Tot(49)       15        4     2065    830.8    400.6   1558.2   639.00      0.0    830.8      0.0    626.4      0.0    110.6       37     86.2     86.2       87     0.000     0.000     0.000     0.000       82        0        0        0        0       28        6     9.921       69     30.0    2.976     1.52       10        7     2065  1212_RCP85_rainfed_15April_sandy.PRM
  Tot(50)       15        4     2066    732.6    484.7   1561.5   647.00      0.0    732.6      0.0    598.7      0.0     76.3       17     38.7     38.7       77     0.000     0.000     0.000     0.000       78        0        0        0        0       56       11     2.045       15     25.9    0.530     0.47        6        7     2066  1212_RCP85_rainfed_15April_sandy.PRM
  Tot(51)       15        4     2067    610.6    471.2   1569.3   654.00      0.0    610.6      0.0    452.1      0.0    106.6       23     45.0     45.0       94     0.000     0.000     0.000     0.000       78        0        0        0        0       58        3     3.011       23     30.5    0.920     0.62        6        7     2067  1212_RCP85_rainfed_15April_sandy.PRM
  Tot(52)       15        4     2068    764.1    436.6   1562.1   662.00      0.0    764.1      0.0    570.0      0.0     86.6       25     76.5     76.5       81     0.000     0.000     0.000     0.000       78        0        0        0        0       42        6     6.225       46     30.4    1.894     1.17        6        7     2068  1212_RCP85_rainfed_15April_sandy.PRM
  Tot(53)       15        4     2069    703.7    398.8   1559.5   669.00      0.0    703.7      0.0    470.6      0.0     98.9       36    117.5    117.5       96     0.000     0.000     0.000     0.000       80        0        0        0        0       24        2    10.632       77     30.6    3.251     1.51        8        7     2069  1212_RCP85_rainfed_15April_sandy.PRM
  Tot(54)       15        4     2070    669.5    417.6   1569.5   677.00      0.0    669.5      0.0    460.3      0.0     87.8       28    110.2    110.2       99     0.000     0.000     0.000     0.000       80        0        0        0        0       26        0     9.998       71     30.0    3.003     1.53        8        7     2070  1212_RCP85_rainfed_15April_sandy.PRM
  Tot(55)       15        4     2071   1079.6    310.7   1558.5   685.00      0.0   1079.6      0.0    864.6      0.0    103.9       54    113.4    113.4       97     0.000     0.000     0.000     0.000       84        0        0        0        0       16        1    13.440       92     30.5    4.097     1.90       12        7     2071  1212_RCP85_rainfed_15April_sandy.PRM
  Tot(56)       15        4     2072    768.6    340.1   1571.6   693.00      0.0    768.6      0.0    556.1      0.0     98.0       42    100.4    100.4       90     0.000     0.000     0.000     0.000       82        0        0        0        0       20        3    11.500       82     30.2    3.468     1.76       10        7     2072  1212_RCP85_rainfed_15April_sandy.PRM
  Tot(57)       15        4     2073    269.4    583.3   1558.4   701.00      0.0    269.4      0.0    135.9      0.0     53.0        9     38.3     38.3       84     0.000     0.000     0.000     0.000       59        0        0        0        0       60       16     1.864       15      0.1    0.001     0.00       29        6     2073  1212_RCP85_rainfed_15April_sandy.PRM
  Tot(58)       15        4     2074    357.2    498.3   1570.5   709.00      0.0    357.2      0.0    154.3      0.0    121.5       31     82.0     82.0       82     0.000     0.000     0.000     0.000       77        0        0        0        0       45        7     5.220       40     30.4    1.589     0.78        5        7     2074  1212_RCP85_rainfed_15April_sandy.PRM
  Tot(59)       15        4     2075    517.3    562.0   1571.5   717.00      0.0    517.3      0.0    361.6      0.0     82.7       17     50.9     50.9       77     0.000     0.000     0.000     0.000       57        0        0        0        0       50       19     2.757       22     13.9    0.384     0.35        2        7     2075  1212_RCP85_rainfed_15April_sandy.PRM
  Tot(60)       15        4     2076    966.2    310.3   1561.2   725.00      0.0    966.2      0.0    725.4      0.0    105.1       48     89.9     89.9      100     0.000     0.000     0.000     0.000       84        0        0        0        0        7        0    13.483       91     30.0    4.045     2.08       12        7     2076  1212_RCP85_rainfed_15April_sandy.PRM
  Tot(61)       15        4     2077    438.2    408.1   1560.0   733.00      0.0    438.2      0.0    191.1      0.0    114.5       47    134.6    134.6       96     0.000     0.000     0.000     0.000       79        0        0        0        0       14        2    11.877       85     30.7    3.649     1.48        7        7     2077  1212_RCP85_rainfed_15April_sandy.PRM
  Tot(62)       15        4     2078    783.4    442.7   1557.9   742.00      0.0    783.4      0.0    631.0      0.0     95.4       23     46.8     46.8       99     0.000     0.000     0.000     0.000       76        0        0        0        0       49        0     4.292       32     30.4    1.306     0.93        4        7     2078  1212_RCP85_rainfed_15April_sandy.PRM
  Tot(63)       15        4     2079    594.7    441.3   1567.1   750.00      0.0    594.7      0.0    444.0      0.0     97.5       24     53.9     53.9       89     0.000     0.000     0.000     0.000       78        0        0        0        0       48        5     4.860       36     30.0    1.460     0.98        6        7     2079  1212_RCP85_rainfed_15April_sandy.PRM
  Tot(64)       15        4     2080    910.9    455.9   1564.3   758.00      0.0    910.9      0.0    651.8      0.0     73.4       23     96.2     96.2       78     0.000     0.000     0.000     0.000       77        0        0        0        0       22        8     8.014       60     22.2    1.778     1.05        5        7     2080  1212_RCP85_rainfed_15April_sandy.PRM
  Tot(65)       15        4     2081    699.0    413.5   1569.4   767.00      0.0    699.0      0.0    486.4      0.0     89.0       28    101.1    101.1      100     0.000     0.000     0.000     0.000       79        0        0        0        0       21        0    10.510       76     30.0    3.153     1.66        7        7     2081  1212_RCP85_rainfed_15April_sandy.PRM
  Tot(66)       15        4     2082   1064.1    305.2   1560.3   775.00      0.0   1064.1      0.0    874.6      0.0     83.6       41    101.4    101.4      100     0.000     0.000     0.000     0.000       83        0        0        0        0        5        0    13.703       94     30.0    4.112     2.23       11        7     2082  1212_RCP85_rainfed_15April_sandy.PRM
  Tot(67)       15        4     2083    932.3    503.0   1573.7   784.00      0.0    932.3      0.0    757.5      0.0    103.7       27     67.2     67.2       67     0.000     0.000     0.000     0.000       59        0        0        0        0       45       28     3.910       31     10.6    0.416     0.29        4        7     2083  1212_RCP85_rainfed_15April_sandy.PRM
  Tot(68)       15        4     2084    871.2    468.5   1567.3   792.00      0.0    871.2      0.0    602.3      0.0    134.5       40     71.6     71.6       59     0.000     0.000     0.000     0.000       76        0        0        0        0       43       22     4.350       34      6.3    0.272     0.13        4        7     2084  1212_RCP85_rainfed_15April_sandy.PRM
  Tot(69)       15        4     2085    557.6    392.6   1574.1   801.00      0.0    557.6      0.0    413.8      0.0     85.8       24     48.7     48.7       94     0.000     0.000     0.000     0.000       78        0        0        0        0       46        3     5.152       38     30.0    1.546     1.17        6        7     2085  1212_RCP85_rainfed_15April_sandy.PRM
  Tot(70)       15        4     2086    490.2    419.5   1574.4   810.00      0.0    490.2      0.0    315.0      0.0     69.1       25     95.0     95.0       77     0.000     0.000     0.000     0.000       77        0        0        0        0       29        9     7.166       54     20.5    1.470     0.90        5        7     2086  1212_RCP85_rainfed_15April_sandy.PRM
  Tot(71)       15        4     2087    344.3    459.8   1572.7   818.00      0.0    344.3      0.0    111.7      0.0     94.9       35    136.7    136.7       89     0.000     0.000     0.000     0.000       76        0        0        0        0       22        4     9.954       75     30.5    3.034     1.32        3        7     2087  1212_RCP85_rainfed_15April_sandy.PRM
  Tot(72)       15        4     2088    419.9    431.7   1557.4   827.00      0.0    419.9      0.0    188.2      0.0     92.3       32    131.2    131.2       96     0.000     0.000     0.000     0.000       77        0        0        0        0       24        2    10.624       79     30.4    3.229     1.45        4        7     2088  1212_RCP85_rainfed_15April_sandy.PRM
  Tot(73)       15        4     2089    904.9    444.8   1564.9   836.00      0.0    904.9      0.0    743.1      0.0     71.5       18     67.8     67.8       95     0.000     0.000     0.000     0.000       76        0        0        0        0       40        1     6.377       48     30.6    1.952     1.42        4        7     2089  1212_RCP85_rainfed_15April_sandy.PRM
  Tot(74)       15        4     2090    318.9    458.8   1560.4   845.00      0.0    318.9      0.0    168.8      0.0     93.0       20     32.8     32.8       96     0.000     0.000     0.000     0.000       74        0        0        0        0       63        2     2.255       18     29.7    0.669     0.53        2        7     2090  1212_RCP85_rainfed_15April_sandy.PRM
  Tot(75)       15        4     2091    581.4    469.2   1568.1   854.00      0.0    581.4      0.0    431.1      0.0     94.1       22     39.3     39.3       79     0.000     0.000     0.000     0.000       52        0        0        0        0       52       19     2.172       18      5.4    0.117     0.11        2        7     2091  1212_RCP85_rainfed_15April_sandy.PRM
  Tot(76)       15        4     2092    911.2    398.0   1560.6   863.00      0.0    911.2      0.0    578.1      0.0    105.5       43    133.0    133.0       92     0.000     0.000     0.000     0.000       78        0        0        0        0       21        3    11.212       84     30.0    3.364     1.41        6        7     2092  1212_RCP85_rainfed_15April_sandy.PRM
  Tot(77)       15        4     2093    558.1    407.8   1563.2   872.00      0.0    558.1      0.0    399.7      0.0     95.6       26     55.0     55.0      100     0.000     0.000     0.000     0.000       76        0        0        0        0       42        0     5.897       45     30.0    1.769     1.19        4        7     2093  1212_RCP85_rainfed_15April_sandy.PRM
  Tot(78)       15        4     2094    789.7    374.3   1569.9   881.00      0.0    789.7      0.0    542.6      0.0     91.6       34    103.3    103.3      100     0.000     0.000     0.000     0.000       78        0        0        0        0       17       -0    10.693       79     30.2    3.227     1.66        6        7     2094  1212_RCP85_rainfed_15April_sandy.PRM
  Tot(79)       15        4     2095    790.5    339.7   1561.1   890.00      0.0    790.5      0.0    540.4      0.0     91.5       43    103.7    103.7       91     0.000     0.000     0.000     0.000       78        0        0        0        0       22        3    10.914       80     30.2    3.293     1.69        6        7     2095  1212_RCP85_rainfed_15April_sandy.PRM
  Tot(80)       15        4     2096    889.0    453.2   1568.3   899.00      0.0    889.0      0.0    651.7      0.0    103.0       31     93.5     93.5       85     0.000     0.000     0.000     0.000       77        0        0        0        0       39        5     6.826       52     30.4    2.073     1.06        5        7     2096  1212_RCP85_rainfed_15April_sandy.PRM
  Tot(81)       15        4     2097   1017.0    387.0   1563.7   908.00      0.0   1017.0      0.0    835.4      0.0     79.5       27     88.6     88.6       99     0.000     0.000     0.000     0.000       78        0        0        0        0       22        0    10.274       76     30.1    3.091     1.84        5        7     2097  1212_RCP85_rainfed_15April_sandy.PRM
  Tot(82)       15        4     2098    719.8    369.7   1565.1   917.00      0.0    719.8      0.0    505.6      0.0     77.0       31    115.4    115.4      100     0.000     0.000     0.000     0.000       77        0        0        0        0       16        0    11.711       87     30.1    3.529     1.84        5        7     2098  1212_RCP85_rainfed_15April_sandy.PRM
  Tot(83)       15        4     2099   1551.5    347.2   1562.9   927.00      0.0   1551.5      0.0   1333.0      0.0     91.5       36     87.4     87.4       99     0.000     0.000     0.000     0.000       78        0        0        0        0       16        1    11.857       85     30.0    3.557     1.99        6        7     2099  1212_RCP85_rainfed_15April_sandy.PRM
