AquaCrop 6.0 (March 2017) - Output created on (date) : 28/06/2021   at (time) : 14:09:45

    RunNr     Day1   Month1    Year1     Rain      ETo       GD     CO2      Irri   Infilt   Runoff    Drain   Upflow        E     E/Ex       Tr      TrW   Tr/Trx    SaltIn   SaltOut    SaltUp  SaltProf     Cycle   SaltStr  FertStr  WeedStr  TempStr   ExpStr   StoStr  BioMass  Brelative   HI     Yield     WPet     DayN   MonthN    YearN
                                           mm       mm    °C.day    ppm        mm       mm       mm       mm       mm       mm        %       mm       mm        %    ton/ha    ton/ha    ton/ha    ton/ha      days       %        %        %        %        %        %    ton/ha        %       %    ton/ha    kg/m3
   Tot(1)       15        4     2017    854.3    420.6   1557.0   407.00    173.8    854.3      0.0    647.3      0.0    159.1       63    175.3    175.3      100     0.000     0.000     0.000     0.000       87        0        0        0        0        1        0    14.093       99     30.0    4.228     1.26       14        7     2017  1212_RCP85_net_15April_sandy.PRM
   Tot(2)       15        4     2018    981.1    446.2   1558.4   410.00    250.6    981.1      0.0    888.4      0.0    142.6       52    191.8    191.8      100     0.000     0.000     0.000     0.000       86        0        0        0        1        2        0    13.763       98     30.0    4.129     1.24       15        7     2018  1212_RCP85_net_15April_sandy.PRM
   Tot(3)       15        4     2019    111.1    596.6   1573.5   413.00    361.1    111.1      0.0     28.6      0.0    175.6       57    268.2    268.2      100     0.000     0.000     0.000     0.000       77        0        0        0        0        2        0    12.337       98     28.2    3.484     0.79        6        7     2019  1212_RCP85_net_15April_sandy.PRM
   Tot(4)       15        4     2020    470.9    475.6   1557.2   416.00    297.2    470.9      0.0    371.8      0.0    159.9       61    223.9    223.9      100     0.000     0.000     0.000     0.000       82        0        0        0        0        2        0    12.898       98     30.0    3.871     1.01        9        7     2020  1212_RCP85_net_15April_sandy.PRM
   Tot(5)       15        4     2021    731.6    487.1   1567.0   419.00    274.9    731.6      0.0    597.4      0.0    155.1       55    217.6    217.6      100     0.000     0.000     0.000     0.000       85        0        0        0        1        2        0    13.517       98     30.0    4.057     1.09       13        7     2021  1212_RCP85_net_15April_sandy.PRM
   Tot(6)       15        4     2022     37.3    666.7   1562.8   422.00    484.1     37.3      0.0      2.8      0.0    203.9       61    301.8    301.8      100     0.000     0.000     0.000     0.000       75        0        0        0        0        3        0    12.014       97     21.2    2.544     0.51        3        7     2022  1212_RCP85_net_15April_sandy.PRM
   Tot(7)       15        4     2023    671.5    456.0   1560.0   425.00    236.7    671.5      0.0    557.4      0.0    152.3       54    186.4    186.4      100     0.000     0.000     0.000     0.000       86        0        0        0        1        2        0    13.691       98     30.0    4.108     1.21       15        7     2023  1212_RCP85_net_15April_sandy.PRM
   Tot(8)       15        4     2024    684.7    456.0   1570.3   428.00    220.6    684.7      0.0    549.6      0.0    150.1       53    184.0    184.0      100     0.000     0.000     0.000     0.000       84        0        0        0        0        2        0    13.544       98     30.0    4.063     1.22       12        7     2024  1212_RCP85_net_15April_sandy.PRM
   Tot(9)       15        4     2025    372.6    469.6   1559.5   431.00    302.0    372.6      0.0    264.0      0.0    169.7       65    221.7    221.7      100     0.000     0.000     0.000     0.000       82        0        0        0        0        2        0    12.991       98     30.0    3.901     1.00       10        7     2025  1212_RCP85_net_15April_sandy.PRM
  Tot(10)       15        4     2026     71.2    597.6   1562.0   435.00    411.8     71.2      0.0     14.6      0.0    179.9       65    286.3    286.3      100     0.000     0.000     0.000     0.000       75        0        0        0        0        2        0    12.158       99      8.0    0.973     0.21        4        7     2026  1212_RCP85_net_15April_sandy.PRM
  Tot(11)       15        4     2027    212.1    553.8   1559.8   438.00    301.6    212.1      0.0     90.4      0.0    154.1       50    245.7    245.7      100     0.000     0.000     0.000     0.000       81        0        0        0        0        2        0    12.977       98     30.0    3.894     0.98        9        7     2027  1212_RCP85_net_15April_sandy.PRM
  Tot(12)       15        4     2028    419.7    515.1   1567.5   442.00    323.0    419.7      0.0    293.8      0.0    168.8       63    246.0    246.0      100     0.000     0.000     0.000     0.000       79        0        0        0        0        2        0    12.499       98     30.0    3.753     0.91        7        7     2028  1212_RCP85_net_15April_sandy.PRM
  Tot(13)       15        4     2029    311.2    492.0   1570.9   445.00    281.1    311.2      0.0    155.0      0.0    174.8       66    213.7    213.7      100     0.000     0.000     0.000     0.000       79        0        0        0        0        2        0    12.770       99     30.0    3.832     0.99        7        7     2029  1212_RCP85_net_15April_sandy.PRM
  Tot(14)       15        4     2030    314.5    522.7   1568.0   449.00    319.3    314.5      0.0    201.2      0.0    169.6       62    248.1    248.1      100     0.000     0.000     0.000     0.000       80        0        0        0        0        2        0    12.730       99     30.0    3.822     0.92        8        7     2030  1212_RCP85_net_15April_sandy.PRM
  Tot(15)       15        4     2031    629.9    524.4   1558.4   452.00    320.2    629.9      0.0    475.7      0.0    160.8       56    244.7    244.7      100     0.000     0.000     0.000     0.000       80        0        0        0        0        2        0    12.736       98     22.3    2.836     0.70        9        7     2031  1212_RCP85_net_15April_sandy.PRM
  Tot(16)       15        4     2032    482.7    507.5   1566.2   456.00    314.3    482.7      0.0    397.6      0.0    156.6       56    238.6    238.6      100     0.000     0.000     0.000     0.000       81        0        0        0        0        2        0    12.797       98     30.0    3.840     0.97        9        7     2032  1212_RCP85_net_15April_sandy.PRM
  Tot(17)       15        4     2033    533.5    541.9   1569.2   460.00    349.8    533.5      0.0    456.1      0.0    163.4       55    247.5    247.5      100     0.000     0.000     0.000     0.000       80        0        0        0        0        2        0    12.620       98     30.0    3.786     0.92        8        7     2033  1212_RCP85_net_15April_sandy.PRM
  Tot(18)       15        4     2034    824.5    457.5   1571.3   464.00    238.8    824.5      0.0    659.1      0.0    170.0       61    186.5    186.5      100     0.000     0.000     0.000     0.000       83        0        0        0        0        2        0    13.489       98     30.0    4.051     1.14       11        7     2034  1212_RCP85_net_15April_sandy.PRM
  Tot(19)       15        4     2035    500.1    454.5   1570.7   468.00    230.9    500.1      0.0    270.1      0.0    168.4       67    197.6    197.6      100     0.000     0.000     0.000     0.000       83        0        0        0        0        1        0    13.560       99     30.0    4.068     1.11       11        7     2035  1212_RCP85_net_15April_sandy.PRM
  Tot(20)       15        4     2036    435.6    429.3   1561.3   472.00    218.0    435.6      0.0    305.7      0.0    172.9       70    175.6    175.6      100     0.000     0.000     0.000     0.000       83        0        0        0        0        1        0    13.802       99     30.0    4.143     1.19       11        7     2036  1212_RCP85_net_15April_sandy.PRM
  Tot(21)       15        4     2037    926.3    425.8   1572.3   476.00    233.5    926.3      0.0    796.0      0.0    193.1       71    160.7    160.7      100     0.000     0.000     0.000     0.000       86        0        0        0        0        2        0    14.213       98     30.0    4.264     1.21       14        7     2037  1212_RCP85_net_15April_sandy.PRM
  Tot(22)       15        4     2038    839.9    411.3   1568.3   481.00    175.6    839.9      0.0    690.8      0.0    143.7       56    162.4    162.4      100     0.000     0.000     0.000     0.000       86        0        0        0        0        1        0    14.318       98     30.0    4.295     1.40       14        7     2038  1212_RCP85_net_15April_sandy.PRM
  Tot(23)       15        4     2039    542.3    532.4   1572.7   485.00    334.0    542.3      0.0    414.4      0.0    179.6       64    244.8    244.8      100     0.000     0.000     0.000     0.000       80        0        0        0        0        2        0    12.879       98     30.0    3.865     0.91        8        7     2039  1212_RCP85_net_15April_sandy.PRM
  Tot(24)       15        4     2040    932.3    472.8   1557.1   489.00    229.5    932.3      0.0    803.1      0.0    164.9       57    192.2    192.2      100     0.000     0.000     0.000     0.000       85        0        0        0        1        2        0    13.946       98     30.0    4.184     1.17       12        7     2040  1212_RCP85_net_15April_sandy.PRM
  Tot(25)       15        4     2041    612.9    512.8   1566.8   494.00    321.9    612.9      0.0    491.3      0.0    172.3       62    234.6    234.6      100     0.000     0.000     0.000     0.000       80        0        0        0        0        2        0    13.196       98     30.0    3.961     0.98        8        7     2041  1212_RCP85_net_15April_sandy.PRM
  Tot(26)       15        4     2042    315.7    479.4   1562.9   499.00    260.0    315.7      0.0    192.5      0.0    152.2       60    223.0    223.0      100     0.000     0.000     0.000     0.000       81        0        0        0        0        1        0    13.336       99     30.0    4.004     1.07        9        7     2042  1212_RCP85_net_15April_sandy.PRM
  Tot(27)       15        4     2043    821.8    411.0   1564.3   504.00    190.6    821.8      0.0    691.8      0.0    143.5       56    160.7    160.7      100     0.000     0.000     0.000     0.000       85        0        0        0        0        1        0    14.304       98     30.0    4.292     1.42       13        7     2043  1212_RCP85_net_15April_sandy.PRM
  Tot(28)       15        4     2044    673.5    431.4   1559.6   508.00    247.8    673.5      0.0    516.0      0.0    146.6       58    191.5    191.5      100     0.000     0.000     0.000     0.000       82        0        0        0        0        1        0    13.558       99     30.0    4.068     1.20       10        7     2044  1212_RCP85_net_15April_sandy.PRM
  Tot(29)       15        4     2045    578.6    450.0   1565.8   513.00    238.6    578.6      0.0    457.0      0.0    160.3       59    177.1    177.1      100     0.000     0.000     0.000     0.000       83        0        0        0        1        2        0    13.923       98     30.0    4.177     1.24       11        7     2045  1212_RCP85_net_15April_sandy.PRM
  Tot(30)       15        4     2046    311.2    600.6   1565.7   519.00    417.1    311.2      0.0    239.9      0.0    170.6       55    277.0    277.0      100     0.000     0.000     0.000     0.000       73        0        0        0        0        3        0    11.760       97      0.8    0.100     0.02        1        7     2046  1212_RCP85_net_15April_sandy.PRM
  Tot(31)       15        4     2047    523.3    509.2   1565.7   524.00    316.8    523.3      0.0    397.7      0.0    165.8       62    238.0    238.0      100     0.000     0.000     0.000     0.000       79        0        0        0        0        2        0    12.867       98     30.0    3.862     0.96        7        7     2047  1212_RCP85_net_15April_sandy.PRM
  Tot(32)       15        4     2048    819.0    427.7   1565.1   529.00    175.7    819.0      0.0    688.1      0.0    131.0       50    170.2    170.2      100     0.000     0.000     0.000     0.000       83        0        0        0        0        1        0    13.830       99     30.0    4.149     1.38       11        7     2048  1212_RCP85_net_15April_sandy.PRM
  Tot(33)       15        4     2049    641.2    451.9   1571.8   535.00    215.1    641.2      0.0    474.1      0.0    161.4       61    192.4    192.4      100     0.000     0.000     0.000     0.000       84        0        0        0        1        1        0    13.869       98     30.0    4.164     1.18       12        7     2049  1212_RCP85_net_15April_sandy.PRM
  Tot(34)       15        4     2050    465.3    435.7   1561.1   541.00    200.6    465.3      0.0    300.1      0.0    164.0       72    188.0    188.0      100     0.000     0.000     0.000     0.000       83        0        0        0        0        1        0    14.017       99     30.0    4.206     1.20       12        7     2050  1212_RCP85_net_15April_sandy.PRM
  Tot(35)       15        4     2051    433.3    486.6   1564.6   546.00    349.6    433.3      0.0    345.3      0.0    158.0       67    252.3    252.3      100     0.000     0.000     0.000     0.000       79        0        0        0        0        2        0    12.310       99      0.4    0.052     0.01        7        7     2051  1212_RCP85_net_15April_sandy.PRM
  Tot(36)       15        4     2052    602.0    542.0   1558.3   552.00    354.8    602.0      0.0    487.9      0.0    179.0       66    254.4    254.4      100     0.000     0.000     0.000     0.000       76        0        0        0        0        2        0    12.389       99      9.8    1.208     0.28        4        7     2052  1212_RCP85_net_15April_sandy.PRM
  Tot(37)       15        4     2053    482.4    474.5   1561.8   558.00    240.3    482.4      0.0    344.9      0.0    154.9       58    209.9    209.9      100     0.000     0.000     0.000     0.000       81        0        0        0        0        1        0    13.491       99     30.0    4.050     1.11        9        7     2053  1212_RCP85_net_15April_sandy.PRM
  Tot(38)       15        4     2054    711.6    486.6   1562.0   564.00    274.9    711.6      0.0    595.0      0.0    159.4       56    202.8    202.8      100     0.000     0.000     0.000     0.000       79        0        0        0        0        2        0    13.084       98     30.0    3.927     1.09        7        7     2054  1212_RCP85_net_15April_sandy.PRM
  Tot(39)       15        4     2055    208.5    485.6   1568.8   571.00    296.5    208.5      0.0    115.5      0.0    165.7       65    215.1    215.1      100     0.000     0.000     0.000     0.000       77        0        0        0        0        1        0    12.815       99     28.9    3.701     0.98        5        7     2055  1212_RCP85_net_15April_sandy.PRM
  Tot(40)       15        4     2056   1225.4    386.6   1558.2   577.00    172.4   1225.4      0.0   1113.1      0.0    125.4       54    157.0    157.0      100     0.000     0.000     0.000     0.000       84        0        0        0        0        1        0    13.736       99     30.0    4.121     1.47       12        7     2056  1212_RCP85_net_15April_sandy.PRM
  Tot(41)       15        4     2057    659.0    467.3   1565.9   583.00    268.7    659.0      0.0    533.0      0.0    151.6       56    198.0    198.0      100     0.000     0.000     0.000     0.000       78        0        0        0        0        2        0    12.812       98     30.0    3.844     1.10        6        7     2057  1212_RCP85_net_15April_sandy.PRM
  Tot(42)       15        4     2058    390.1    455.5   1570.2   590.00    233.7    390.1      0.0    258.2      0.0    159.2       59    185.5    185.5      100     0.000     0.000     0.000     0.000       80        0        0        0        0        1        0    13.431       98     30.0    4.031     1.17        8        7     2058  1212_RCP85_net_15April_sandy.PRM
  Tot(43)       15        4     2059    661.7    506.9   1559.9   597.00    287.3    661.7      0.0    550.0      0.0    152.2       53    219.1    219.1      100     0.000     0.000     0.000     0.000       76        0        0        0        0        2        0    12.520       98     30.0    3.759     1.01        5        7     2059  1212_RCP85_net_15April_sandy.PRM
  Tot(44)       15        4     2060    677.2    482.3   1572.5   604.00    299.0    677.2      0.0    541.6      0.0    167.2       64    220.7    220.7      100     0.000     0.000     0.000     0.000       79        0        0        0        0        2        0    12.622       98     15.2    1.919     0.50        7        7     2060  1212_RCP85_net_15April_sandy.PRM
  Tot(45)       15        4     2061    453.9    482.6   1559.2   611.00    289.2    453.9      0.0    355.4      0.0    154.2       59    216.0    216.0      100     0.000     0.000     0.000     0.000       77        0        0        0        0        2        0    12.735       99      4.9    0.628     0.17        5        7     2061  1212_RCP85_net_15April_sandy.PRM
  Tot(46)       15        4     2062    656.9    426.8   1563.4   618.00    238.2    656.9      0.0    499.8      0.0    150.4       73    214.4    214.4      100     0.000     0.000     0.000     0.000       81        0        0        0        0        1        0    13.269       99     30.0    3.983     1.09        9        7     2062  1212_RCP85_net_15April_sandy.PRM
  Tot(47)       15        4     2063    895.2    377.2   1570.5   625.00    104.9    895.2      0.0    708.1      0.0    147.9       59    131.1    131.1      100     0.000     0.000     0.000     0.000       84        0        0        0        0        1        0    14.190       98     30.0    4.257     1.53       12        7     2063  1212_RCP85_net_15April_sandy.PRM
  Tot(48)       15        4     2064    379.7    506.9   1574.6   632.00    316.2    379.7      0.0    292.2      0.0    175.9       64    221.7    221.7      100     0.000     0.000     0.000     0.000       77        0        0        0        0        2        0    12.394       98     15.0    1.859     0.47        5        7     2064  1212_RCP85_net_15April_sandy.PRM
  Tot(49)       15        4     2065    830.8    400.6   1558.2   639.00    161.6    830.8      0.0    682.4      0.0    154.1       63    148.0    148.0      100     0.000     0.000     0.000     0.000       82        0        0        0        0        1        0    14.283       99     30.0    4.285     1.42       10        7     2065  1212_RCP85_net_15April_sandy.PRM
  Tot(50)       15        4     2066    732.6    484.7   1561.5   647.00    292.2    732.6      0.0    655.2      0.0    148.4       51    201.8    201.8      100     0.000     0.000     0.000     0.000       78        0        0        0        0        2        0    12.989       98     25.3    3.283     0.94        6        7     2066  1212_RCP85_net_15April_sandy.PRM
  Tot(51)       15        4     2067    610.6    471.2   1569.3   654.00    252.6    610.6      0.0    510.7      0.0    154.3       55    189.9    189.9      100     0.000     0.000     0.000     0.000       78        0        0        0        0        2        0    12.913       98     30.0    3.874     1.13        6        7     2067  1212_RCP85_net_15April_sandy.PRM
  Tot(52)       15        4     2068    764.1    436.6   1562.1   662.00    210.7    764.1      0.0    624.8      0.0    146.1       55    172.9    172.9      100     0.000     0.000     0.000     0.000       78        0        0        0        0        1        0    13.263       98     30.0    3.981     1.25        6        7     2068  1212_RCP85_net_15April_sandy.PRM
  Tot(53)       15        4     2069    703.7    398.8   1559.5   669.00    163.9    703.7      0.0    531.3      0.0    155.1       67    164.4    164.4      100     0.000     0.000     0.000     0.000       80        0        0        0        0        1        0    13.698       99     30.0    4.111     1.29        8        7     2069  1212_RCP85_net_15April_sandy.PRM
  Tot(54)       15        4     2070    669.5    417.6   1569.5   677.00    173.4    669.5      0.0    519.4      0.0    144.7       58    167.4    167.4      100     0.000     0.000     0.000     0.000       80        0        0        0        0        1        0    13.814       98     30.0    4.144     1.33        8        7     2070  1212_RCP85_net_15April_sandy.PRM
  Tot(55)       15        4     2071   1079.6    310.7   1558.5   685.00    106.5   1079.6      0.0    932.6      0.0    131.8       71    123.9    123.9      100     0.000     0.000     0.000     0.000       84        0        0        0        0        0        0    14.569       99     30.0    4.371     1.72       12        7     2071  1212_RCP85_net_15April_sandy.PRM
  Tot(56)       15        4     2072    768.6    340.1   1571.6   693.00    116.0    768.6      0.0    613.4      0.0    127.7       60    129.4    129.4      100     0.000     0.000     0.000     0.000       82        0        0        0        0        1        0    13.949       99     30.0    4.185     1.63       10        7     2072  1212_RCP85_net_15April_sandy.PRM
  Tot(57)       15        4     2073    269.4    583.3   1558.4   701.00    378.1    269.4      0.0    192.0      0.0    160.6       52    251.7    251.7      100     0.000     0.000     0.000     0.000       71        0        0        0        0        3        0    11.728       97      0.1    0.008     0.00       29        6     2073  1212_RCP85_net_15April_sandy.PRM
  Tot(58)       15        4     2074    357.2    498.3   1570.5   709.00    246.8    357.2      0.0    222.1      0.0    173.0       64    208.9    208.9      100     0.000     0.000     0.000     0.000       77        0        0        0        0        1        0    12.940       98     30.0    3.885     1.02        5        7     2074  1212_RCP85_net_15April_sandy.PRM
  Tot(59)       15        4     2075    517.3    562.0   1571.5   717.00    327.8    517.3      0.0    420.9      0.0    171.7       57    229.9    229.9      100     0.000     0.000     0.000     0.000       74        0        0        0        0        2        0    12.361       98     16.6    2.046     0.51        2        7     2075  1212_RCP85_net_15April_sandy.PRM
  Tot(60)       15        4     2076    966.2    310.3   1561.2   725.00     76.8    966.2      0.0    751.0      0.0    143.3       70    102.8    102.8      100     0.000     0.000     0.000     0.000       84        0        0        0        0        0        0    14.684       99     30.0    4.405     1.79       12        7     2076  1212_RCP85_net_15April_sandy.PRM
  Tot(61)       15        4     2077    438.2    408.1   1560.0   733.00    130.4    438.2      0.0    258.7      0.0    155.7       68    156.2    156.2      100     0.000     0.000     0.000     0.000       79        0        0        0        0        1        0    13.786       99     30.0    4.138     1.34        7        7     2077  1212_RCP85_net_15April_sandy.PRM
  Tot(62)       15        4     2078    783.4    442.7   1557.9   742.00    243.6    783.4      0.0    676.4      0.0    171.7       63    167.8    167.8      100     0.000     0.000     0.000     0.000       76        0        0        0        0        2        0    13.045       98     30.0    3.914     1.16        4        7     2078  1212_RCP85_net_15April_sandy.PRM
  Tot(63)       15        4     2079    594.7    441.3   1567.1   750.00    221.2    594.7      0.0    493.6      0.0    148.4       56    173.3    173.3      100     0.000     0.000     0.000     0.000       78        0        0        0        0        2        0    13.217       98     30.0    3.965     1.24        6        7     2079  1212_RCP85_net_15April_sandy.PRM
  Tot(64)       15        4     2080    910.9    455.9   1564.3   758.00    222.0    910.9      0.0    729.9      0.0    145.4       53    168.0    168.0      100     0.000     0.000     0.000     0.000       77        0        0        0        0        1        0    13.180       98     22.5    2.960     0.95        5        7     2080  1212_RCP85_net_15April_sandy.PRM
  Tot(65)       15        4     2081    699.0    413.5   1569.4   767.00    150.7    699.0      0.0    524.7      0.0    157.4       60    145.1    145.1      100     0.000     0.000     0.000     0.000       79        0        0        0        0        1        0    13.611       98     30.0    4.083     1.35        7        7     2081  1212_RCP85_net_15April_sandy.PRM
  Tot(66)       15        4     2082   1064.1    305.2   1560.3   775.00    103.0   1064.1      0.0    920.6      0.0    133.0       69    108.9    108.9      100     0.000     0.000     0.000     0.000       83        0        0        0        0        0        0    14.410       99     30.0    4.323     1.79       11        7     2082  1212_RCP85_net_15April_sandy.PRM
  Tot(67)       15        4     2083    932.3    503.0   1573.7   784.00    282.8    932.3      0.0    833.4      0.0    153.6       59    223.8    223.8      100     0.000     0.000     0.000     0.000       76        0        0        0        0        1        0    12.655       99     19.5    2.464     0.65        4        7     2083  1212_RCP85_net_15April_sandy.PRM
  Tot(68)       15        4     2084    871.2    468.5   1567.3   792.00    242.7    871.2      0.0    672.4      0.0    170.1       69    208.6    208.6      100     0.000     0.000     0.000     0.000       76        0        0        0        0        1        0    12.738       99     10.0    1.278     0.34        4        7     2084  1212_RCP85_net_15April_sandy.PRM
  Tot(69)       15        4     2085    557.6    392.6   1574.1   801.00    211.5    557.6      0.0    462.4      0.0    141.0       63    155.6    155.6      100     0.000     0.000     0.000     0.000       78        0        0        0        0        2        0    13.249       99     30.0    3.975     1.35        6        7     2085  1212_RCP85_net_15April_sandy.PRM
  Tot(70)       15        4     2086    490.2    419.5   1574.4   810.00    223.7    490.2      0.0    389.2      0.0    136.2       59    177.1    177.1      100     0.000     0.000     0.000     0.000       77        0        0        0        0        1        0    13.172       99     23.4    3.084     0.99        5        7     2086  1212_RCP85_net_15April_sandy.PRM
  Tot(71)       15        4     2087    344.3    459.8   1572.7   818.00    204.4    344.3      0.0    204.8      0.0    160.4       65    182.3    182.3      100     0.000     0.000     0.000     0.000       76        0        0        0        0        1        0    13.064       99     30.0    3.922     1.15        3        7     2087  1212_RCP85_net_15April_sandy.PRM
  Tot(72)       15        4     2088    419.9    431.7   1557.4   827.00    163.1    419.9      0.0    265.5      0.0    143.5       58    165.7    165.7      100     0.000     0.000     0.000     0.000       77        0        0        0        0        1        0    13.196       99     30.0    3.960     1.28        4        7     2088  1212_RCP85_net_15April_sandy.PRM
  Tot(73)       15        4     2089    904.9    444.8   1564.9   836.00    243.6    904.9      0.0    811.8      0.0    154.3       55    159.7    159.7      100     0.000     0.000     0.000     0.000       76        0        0        0        0        2        0    12.902       98     30.0    3.872     1.24        4        7     2089  1212_RCP85_net_15April_sandy.PRM
  Tot(74)       15        4     2090    318.9    458.8   1560.4   845.00    265.9    318.9      0.0    222.4      0.0    161.0       59    172.9    172.9      100     0.000     0.000     0.000     0.000       74        0        0        0        0        3        0    12.424       97     30.0    3.729     1.12        2        7     2090  1212_RCP85_net_15April_sandy.PRM
  Tot(75)       15        4     2091    581.4    469.2   1568.1   854.00    307.1    581.4      0.0    488.4      0.0    159.6       73    223.4    223.4      100     0.000     0.000     0.000     0.000       74        0        0        0        0        2        0    11.946       99      5.3    0.630     0.16        2        7     2091  1212_RCP85_net_15April_sandy.PRM
  Tot(76)       15        4     2092    911.2    398.0   1560.6   863.00    180.8    911.2      0.0    669.0      0.0    164.9       73    163.6    163.6      100     0.000     0.000     0.000     0.000       78        0        0        0        0        1        0    13.290       99     30.0    3.987     1.22        6        7     2092  1212_RCP85_net_15April_sandy.PRM
  Tot(77)       15        4     2093    558.1    407.8   1563.2   872.00    191.0    558.1      0.0    443.1      0.0    155.1       61    142.5    142.5      100     0.000     0.000     0.000     0.000       76        0        0        0        0        2        0    12.885       98     30.0    3.866     1.31        4        7     2093  1212_RCP85_net_15April_sandy.PRM
  Tot(78)       15        4     2094    789.7    374.3   1569.9   881.00    165.6    789.7      0.0    613.2      0.0    154.0       67    135.8    135.8      100     0.000     0.000     0.000     0.000       78        0        0        0        0        1        0    13.305       99     30.0    3.994     1.38        6        7     2094  1212_RCP85_net_15April_sandy.PRM
  Tot(79)       15        4     2095    790.5    339.7   1561.1   890.00    139.3    790.5      0.0    607.9      0.0    136.3       70    130.7    130.7      100     0.000     0.000     0.000     0.000       78        0        0        0        0        1        0    13.455       99     30.0    4.037     1.52        6        7     2095  1212_RCP85_net_15April_sandy.PRM
  Tot(80)       15        4     2096    889.0    453.2   1568.3   899.00    226.5    889.0      0.0    725.9      0.0    168.0       66    180.7    180.7      100     0.000     0.000     0.000     0.000       77        0        0        0        0        2        0    12.882       98     30.0    3.867     1.11        5        7     2096  1212_RCP85_net_15April_sandy.PRM
  Tot(81)       15        4     2097   1017.0    387.0   1563.7   908.00    176.2   1017.0      0.0    888.7      0.0    161.0       66    130.0    130.0      100     0.000     0.000     0.000     0.000       78        0        0        0        0        1        0    13.374       99     30.0    4.012     1.38        5        7     2097  1212_RCP85_net_15April_sandy.PRM
  Tot(82)       15        4     2098    719.8    369.7   1565.1   917.00    133.4    719.8      0.0    565.9      0.0    131.4       58    134.1    134.1      100     0.000     0.000     0.000     0.000       77        0        0        0        0        1        0    13.335       99     30.0    4.000     1.51        5        7     2098  1212_RCP85_net_15April_sandy.PRM
  Tot(83)       15        4     2099   1551.5    347.2   1562.9   927.00     99.9   1551.5      0.0   1375.4      0.0    123.4       55    113.1    113.1      100     0.000     0.000     0.000     0.000       78        0        0        0        0        1        0    13.760       99     30.0    4.128     1.75        6        7     2099  1212_RCP85_net_15April_sandy.PRM
