AquaCrop 6.0 (March 2017) - Output created on (date) : 07/06/2021   at (time) : 20:07:01

    RunNr     Day1   Month1    Year1     Rain      ETo       GD     CO2      Irri   Infilt   Runoff    Drain   Upflow        E     E/Ex       Tr      TrW   Tr/Trx    SaltIn   SaltOut    SaltUp  SaltProf     Cycle   SaltStr  FertStr  WeedStr  TempStr   ExpStr   StoStr  BioMass  Brelative   HI     Yield     WPet     DayN   MonthN    YearN
                                           mm       mm    °C.day    ppm        mm       mm       mm       mm       mm       mm        %       mm       mm        %    ton/ha    ton/ha    ton/ha    ton/ha      days       %        %        %        %        %        %    ton/ha        %       %    ton/ha    kg/m3
   Tot(1)       15        3     2017      8.4    661.7   1576.4   404.00      0.0      8.4      0.0      0.0      0.0     27.3        4     32.5     32.5       88     0.000     0.000     0.000     0.000       81        0        0        0        0       66       12     1.461       11     17.5    0.255     0.43       11        6     2017  1212_RCP45_rainfed_15March_sandy.PRM
   Tot(2)       15        3     2018    197.1    584.6   1573.9   407.00      0.0    197.1      0.0     35.6      0.0     85.8       18     83.8     83.8       75     0.000     0.000     0.000     0.000       85        0        0        0        0       43       15     4.275       32     28.7    1.227     0.73       14        6     2018  1212_RCP45_rainfed_15March_sandy.PRM
   Tot(3)       15        3     2019     20.1    656.9   1562.2   409.00      0.0     20.1      0.0      0.0      0.0     34.6        5     40.0     40.0       83     0.000     0.000     0.000     0.000       70        0        0        0        0       61       15     1.796       14     16.4    0.294     0.40        9        6     2019  1212_RCP45_rainfed_15March_sandy.PRM
   Tot(4)       15        3     2020    129.7    624.5   1566.7   411.00      0.0    129.7      0.0     15.0      0.0     69.6       11     36.6     36.6       82     0.000     0.000     0.000     0.000       69        0        0        0        0       60       16     1.764       13     13.2    0.234     0.33       12        6     2020  1212_RCP45_rainfed_15March_sandy.PRM
   Tot(5)       15        3     2021    378.1    450.6   1570.6   413.00      0.0    378.1      0.0    182.9      0.0     90.3       28     96.0     96.0       72     0.000     0.000     0.000     0.000       89        0        0        0        1       37       14     6.977       50     29.0    2.024     1.09       17        6     2021  1212_RCP45_rainfed_15March_sandy.PRM
   Tot(6)       15        3     2022    154.3    563.5   1559.3   416.00      0.0    154.3      0.0      0.0      0.0     93.1       21    103.5    103.5       83     0.000     0.000     0.000     0.000       84        0        0        0        0       44       11     5.585       41     30.1    1.679     0.86       12        6     2022  1212_RCP45_rainfed_15March_sandy.PRM
   Tot(7)       15        3     2023    213.4    530.6   1572.4   418.00      0.0    213.4      0.0     75.6      0.0     97.3       19     34.3     34.3       83     0.000     0.000     0.000     0.000       86        0        0        0        0       60       10     1.822       14     26.8    0.487     0.38       15        6     2023  1212_RCP45_rainfed_15March_sandy.PRM
   Tot(8)       15        3     2024     46.4    611.8   1567.0   420.00      0.0     46.4      0.0      0.0      0.0     61.1       10     33.7     33.7       83     0.000     0.000     0.000     0.000       83        0        0        0        1       60       14     1.745       13     15.4    0.269     0.28       12        6     2024  1212_RCP45_rainfed_15March_sandy.PRM
   Tot(9)       15        3     2025     14.3    715.7   1571.2   423.00      0.0     14.3      0.0      0.0      0.0     30.7        4     30.7     30.7       83     0.000     0.000     0.000     0.000       68        0        0        0        0       67       16     1.267        9      8.2    0.104     0.21       10        6     2025  1212_RCP45_rainfed_15March_sandy.PRM
  Tot(10)       15        3     2026    125.1    581.9   1569.9   425.00      0.0    125.1      0.0      0.0      0.0    117.5       21     34.2     34.2       82     0.000     0.000     0.000     0.000       84        0        0        0        0       58        9     1.717       13     27.6    0.474     0.31       12        6     2026  1212_RCP45_rainfed_15March_sandy.PRM
  Tot(11)       15        3     2027     25.8    649.3   1569.6   428.00      0.0     25.8      0.0      0.0      0.0     38.1        6     48.0     48.0       81     0.000     0.000     0.000     0.000       80        0        0        0        0       58       21     2.184       17     28.1    0.613     0.71        7        6     2027  1212_RCP45_rainfed_15March_sandy.PRM
  Tot(12)       15        3     2028    146.8    549.9   1568.5   430.00      0.0    146.8      0.0      0.0      0.0    104.7       25     88.1     88.1       67     0.000     0.000     0.000     0.000       86        0        0        0        0       42       16     5.326       38     28.2    1.503     0.79       15        6     2028  1212_RCP45_rainfed_15March_sandy.PRM
  Tot(13)       15        3     2029     25.7    601.1   1564.5   433.00      0.0     25.7      0.0      0.0      0.0     42.0        7     31.9     31.9       82     0.000     0.000     0.000     0.000       81        0        0        0        0       61       15     1.625       12     11.3    0.184     0.25        9        6     2029  1212_RCP45_rainfed_15March_sandy.PRM
  Tot(14)       15        3     2030    104.8    558.6   1572.1   435.00      0.0    104.8      0.0      0.0      0.0     97.9       20     63.6     63.6       76     0.000     0.000     0.000     0.000       84        0        0        0        0       51       17     3.591       26     30.2    1.084     0.68       12        6     2030  1212_RCP45_rainfed_15March_sandy.PRM
  Tot(15)       15        3     2031     67.0    604.6   1577.8   438.00      0.0     67.0      0.0      0.0      0.0     69.5       13     64.0     64.0       68     0.000     0.000     0.000     0.000       76        0        0        0        0       48       26     3.544       26     23.4    0.830     0.63       10        6     2031  1212_RCP45_rainfed_15March_sandy.PRM
  Tot(16)       15        3     2032     28.1    602.0   1565.1   440.00      0.0     28.1      0.0      0.0      0.0     46.6        8     36.8     36.8       88     0.000     0.000     0.000     0.000       75        0        0        0        0       63       14     1.913       14     23.6    0.451     0.55        9        6     2032  1212_RCP45_rainfed_15March_sandy.PRM
  Tot(17)       15        3     2033    186.0    590.5   1561.0   443.00      0.0    186.0      0.0     24.6      0.0     82.2       16     71.3     71.3       78     0.000     0.000     0.000     0.000       81        0        0        0        0       50       17     3.610       27     30.1    1.087     0.73       10        6     2033  1212_RCP45_rainfed_15March_sandy.PRM
  Tot(18)       15        3     2034    171.6    518.8   1566.3   445.00      0.0    171.6      0.0     19.6      0.0    108.3       22     37.4     37.4       83     0.000     0.000     0.000     0.000       84        0        0        0        0       59       11     2.212       16     28.7    0.636     0.45       12        6     2034  1212_RCP45_rainfed_15March_sandy.PRM
  Tot(19)       15        3     2035     99.1    556.0   1561.7   448.00      0.0     99.1      0.0      0.0      0.0     80.3       16     60.7     60.7       76     0.000     0.000     0.000     0.000       81        0        0        0        0       52       20     3.170       24     23.0    0.728     0.52        9        6     2035  1212_RCP45_rainfed_15March_sandy.PRM
  Tot(20)       15        3     2036    126.4    568.8   1570.5   450.00      0.0    126.4      0.0      0.0      0.0     88.5       20    102.4    102.4       81     0.000     0.000     0.000     0.000       82        0        0        0        0       42       19     6.109       45     29.4    1.795     0.94       10        6     2036  1212_RCP45_rainfed_15March_sandy.PRM
  Tot(21)       15        3     2037     83.5    547.1   1562.7   453.00      0.0     83.5      0.0      0.0      0.0     64.1       13     47.0     47.0       74     0.000     0.000     0.000     0.000       60        0        0        0        0       53       22     2.594       19      8.9    0.231     0.24       10        6     2037  1212_RCP45_rainfed_15March_sandy.PRM
  Tot(22)       15        3     2038    138.7    570.9   1557.1   456.00      0.0    138.7      0.0      2.4      0.0    102.9       22     86.9     86.9       76     0.000     0.000     0.000     0.000       84        0        0        0        0       44       20     4.921       35     30.4    1.495     0.79       11        6     2038  1212_RCP45_rainfed_15March_sandy.PRM
  Tot(23)       15        3     2039    129.5    495.9   1560.4   458.00      0.0    129.5      0.0      0.0      0.0    119.2       26     50.5     50.5       85     0.000     0.000     0.000     0.000       84        0        0        0        0       57        9     3.141       22     31.0    0.972     0.58       12        6     2039  1212_RCP45_rainfed_15March_sandy.PRM
  Tot(24)       15        3     2040     45.6    574.1   1560.2   461.00      0.0     45.6      0.0      0.0      0.0     55.0       10     46.9     46.9       81     0.000     0.000     0.000     0.000       80        0        0        0        0       54       17     2.564       19     30.3    0.777     0.77        8        6     2040  1212_RCP45_rainfed_15March_sandy.PRM
  Tot(25)       15        3     2041     13.7    661.7   1561.5   463.00      0.0     13.7      0.0      0.0      0.0     32.6        5     32.0     32.0       87     0.000     0.000     0.000     0.000       80        0        0        0        0       65       13     1.446       11     21.5    0.311     0.48        9        6     2041  1212_RCP45_rainfed_15March_sandy.PRM
  Tot(26)       15        3     2042     40.3    595.5   1577.1   466.00      0.0     40.3      0.0      0.0      0.0     55.5       10     42.3     42.3       80     0.000     0.000     0.000     0.000       66        0        0        0        0       54       18     2.503       19     14.3    0.357     0.37       10        6     2042  1212_RCP45_rainfed_15March_sandy.PRM
  Tot(27)       15        3     2043    136.7    611.5   1565.4   469.00      0.0    136.7      0.0     29.1      0.0     78.0       13     32.8     32.8       81     0.000     0.000     0.000     0.000       68        0        0        0        0       60       16     1.573       12      9.2    0.145     0.21       10        6     2043  1212_RCP45_rainfed_15March_sandy.PRM
  Tot(28)       15        3     2044    154.5    584.3   1572.9   471.00      0.0    154.5      0.0     35.8      0.0     71.8       13     41.3     41.3       76     0.000     0.000     0.000     0.000       64        0        0        0        0       56       18     2.191       17     13.9    0.305     0.38        9        6     2044  1212_RCP45_rainfed_15March_sandy.PRM
  Tot(29)       15        3     2045    278.4    479.6   1564.0   474.00      0.0    278.4      0.0     92.7      0.0    100.4       38    143.3    143.3       81     0.000     0.000     0.000     0.000       85        0        0        0        0       16       15    10.149       70     29.7    3.011     1.26       12        6     2045  1212_RCP45_rainfed_15March_sandy.PRM
  Tot(30)       15        3     2046    201.6    548.8   1559.1   476.00      0.0    201.6      0.0      0.0      0.0     92.1       20     63.6     63.6       71     0.000     0.000     0.000     0.000       85        0        0        0        1       47       21     3.546       26     25.9    0.918     0.59       13        6     2046  1212_RCP45_rainfed_15March_sandy.PRM
  Tot(31)       15        3     2047    277.2    521.5   1557.2   479.00      0.0    277.2      0.0    100.1      0.0     88.3       20     66.4     66.4       73     0.000     0.000     0.000     0.000       84        0        0        0        0       49       17     3.777       28     29.8    1.126     0.73       11        6     2047  1212_RCP45_rainfed_15March_sandy.PRM
  Tot(32)       15        3     2048     71.5    570.3   1558.2   481.00      0.0     71.5      0.0      0.0      0.0     80.3       16     46.4     46.4       74     0.000     0.000     0.000     0.000       60        0        0        0        0       54       22     2.286       17      9.0    0.205     0.20        8        6     2048  1212_RCP45_rainfed_15March_sandy.PRM
  Tot(33)       15        3     2049     25.5    613.2   1568.9   484.00      0.0     25.5      0.0      0.0      0.0     44.4        7     37.2     37.2       85     0.000     0.000     0.000     0.000       73        0        0        0        0       64       16     1.989       15     21.5    0.427     0.53        8        6     2049  1212_RCP45_rainfed_15March_sandy.PRM
  Tot(34)       15        3     2050    202.2    531.7   1565.1   487.00      0.0    202.2      0.0     37.2      0.0     92.2       26    114.8    114.8       73     0.000     0.000     0.000     0.000       83        0        0        0        0       31       17     7.433       53     19.9    1.479     0.72       10        6     2050  1212_RCP45_rainfed_15March_sandy.PRM
  Tot(35)       15        3     2051     80.0    630.7   1575.7   489.00      0.0     80.0      0.0      0.0      0.0     57.6       10     78.6     78.6       87     0.000     0.000     0.000     0.000       80        0        0        0        0       49       15     3.655       28     30.1    1.099     0.81        8        6     2051  1212_RCP45_rainfed_15March_sandy.PRM
  Tot(36)       15        3     2052     94.7    592.2   1565.3   492.00      0.0     94.7      0.0     50.1      0.0     58.8       10     38.1     38.1       80     0.000     0.000     0.000     0.000       62        0        0        0        0       56       18     2.033       16     10.2    0.207     0.23        8        6     2052  1212_RCP45_rainfed_15March_sandy.PRM
  Tot(37)       15        3     2053    254.7    564.7   1566.7   494.00      0.0    254.7      0.0    126.9      0.0    101.5       18     33.1     33.1       84     0.000     0.000     0.000     0.000       83        0        0        0        0       62        9     1.681       12     23.7    0.398     0.30       11        6     2053  1212_RCP45_rainfed_15March_sandy.PRM
  Tot(38)       15        3     2054     61.7    600.3   1570.7   496.00      0.0     61.7      0.0      2.2      0.0     57.4       12     63.8     63.8       70     0.000     0.000     0.000     0.000       78        0        0        0        0       47       32     3.443       26     21.1    0.728     0.60        6        6     2054  1212_RCP45_rainfed_15March_sandy.PRM
  Tot(39)       15        3     2055    173.3    559.3   1565.6   498.00      0.0    173.3      0.0      0.0      0.0    106.7       21     57.6     57.6       88     0.000     0.000     0.000     0.000       82        0        0        0        0       52        7     3.383       25     30.3    1.025     0.63       10        6     2055  1212_RCP45_rainfed_15March_sandy.PRM
  Tot(40)       15        3     2056     97.0    546.1   1568.9   501.00      0.0     97.0      0.0      0.0      0.0     82.0       16     33.1     33.1       80     0.000     0.000     0.000     0.000       80        0        0        0        0       60       12     1.729       13     15.5    0.268     0.23        7        6     2056  1212_RCP45_rainfed_15March_sandy.PRM
  Tot(41)       15        3     2057     48.1    614.0   1577.7   503.00      0.0     48.1      0.0      0.0      0.0     52.0        9     47.0     47.0       92     0.000     0.000     0.000     0.000       80        0        0        0        0       58        7     2.292       17     30.3    0.694     0.70        8        6     2057  1212_RCP45_rainfed_15March_sandy.PRM
  Tot(42)       15        3     2058    205.5    528.1   1563.0   505.00      0.0    205.5      0.0     20.8      0.0    116.1       24     47.7     47.7       78     0.000     0.000     0.000     0.000       82        0        0        0        0       57       15     2.669       20     30.6    0.817     0.50       11        6     2058  1212_RCP45_rainfed_15March_sandy.PRM
  Tot(43)       15        3     2059    483.2    515.9   1563.6   507.00      0.0    483.2      0.0    285.7      0.0     92.4       26    112.9    112.9       82     0.000     0.000     0.000     0.000       84        0        0        0        0       35        7     7.323       51     29.1    2.130     1.06       12        6     2059  1212_RCP45_rainfed_15March_sandy.PRM
  Tot(44)       15        3     2060     74.0    548.9   1563.7   509.00      0.0     74.0      0.0      0.0      0.0     85.1       16     34.0     34.0       81     0.000     0.000     0.000     0.000       78        0        0        0        0       61       12     1.668       13     26.7    0.445     0.37        6        6     2060  1212_RCP45_rainfed_15March_sandy.PRM
  Tot(45)       15        3     2061    131.5    567.3   1564.8   511.00      0.0    131.5      0.0     59.4      0.0     79.3       16     44.9     44.9       75     0.000     0.000     0.000     0.000       81        0        0        0        0       53       21     2.488       18     28.7    0.714     0.58        9        6     2061  1212_RCP45_rainfed_15March_sandy.PRM
  Tot(46)       15        3     2062     64.2    603.1   1562.8   513.00      0.0     64.2      0.0      0.0      0.0     64.4       11     34.0     34.0       86     0.000     0.000     0.000     0.000       80        0        0        0        0       63       12     1.668       13     16.4    0.273     0.28        8        6     2062  1212_RCP45_rainfed_15March_sandy.PRM
  Tot(47)       15        3     2063     91.3    586.4   1559.6   514.00      0.0     91.3      0.0      0.0      0.0     64.8       12     43.1     43.1       74     0.000     0.000     0.000     0.000       56        0        0        0        0       53       22     2.216       17      5.0    0.112     0.14        6        6     2063  1212_RCP45_rainfed_15March_sandy.PRM
  Tot(48)       15        3     2064    161.9    574.6   1576.8   516.00      0.0    161.9      0.0      0.0      0.0    123.8       27     68.1     68.1       64     0.000     0.000     0.000     0.000       85        0        0        0        0       45       19     3.921       28     26.8    1.052     0.55       13        6     2064  1212_RCP45_rainfed_15March_sandy.PRM
  Tot(49)       15        3     2065     60.8    605.8   1560.0   518.00      0.0     60.8      0.0      0.0      0.0     60.8       10     44.2     44.2       94     0.000     0.000     0.000     0.000       78        0        0        0        0       59        5     2.257       17     29.3    0.661     0.63        6        6     2065  1212_RCP45_rainfed_15March_sandy.PRM
  Tot(50)       15        3     2066    218.8    565.6   1561.5   519.00      0.0    218.8      0.0     33.0      0.0     72.4       18    102.7    102.7       69     0.000     0.000     0.000     0.000       75        0        0        0        0       29       25     6.081       45     22.5    1.368     0.82        8        6     2066  1212_RCP45_rainfed_15March_sandy.PRM
  Tot(51)       15        3     2067    119.8    565.9   1565.5   520.00      0.0    119.8      0.0     16.2      0.0     77.6       14     48.7     48.7       93     0.000     0.000     0.000     0.000       81        0        0        0        0       54        4     3.042       22     30.0    0.913     0.72        9        6     2067  1212_RCP45_rainfed_15March_sandy.PRM
  Tot(52)       15        3     2068    121.8    578.0   1566.0   522.00      0.0    121.8      0.0     17.1      0.0     75.3       15     42.4     42.4       72     0.000     0.000     0.000     0.000       56        0        0        0        0       51       22     2.271       17      4.0    0.091     0.11        8        6     2068  1212_RCP45_rainfed_15March_sandy.PRM
  Tot(53)       15        3     2069    162.6    539.4   1562.5   523.00      0.0    162.6      0.0     16.4      0.0    104.1       25     58.8     58.8       64     0.000     0.000     0.000     0.000       81        0        0        0        0       46       15     3.551       25     30.1    1.067     0.67        9        6     2069  1212_RCP45_rainfed_15March_sandy.PRM
  Tot(54)       15        3     2070    241.0    491.2   1564.6   524.00      0.0    241.0      0.0     76.2      0.0    118.2       40    100.0    100.0       71     0.000     0.000     0.000     0.000       84        0        0        0        0       27       25     6.710       48     14.4    0.968     0.45       12        6     2070  1212_RCP45_rainfed_15March_sandy.PRM
  Tot(55)       15        3     2071    167.3    576.3   1571.2   525.00      0.0    167.3      0.0     43.0      0.0     86.8       16     49.2     49.2       82     0.000     0.000     0.000     0.000       81        0        0        0        0       57       11     2.297       17     30.5    0.701     0.52        8        6     2071  1212_RCP45_rainfed_15March_sandy.PRM
  Tot(56)       15        3     2072    138.6    582.6   1564.8   527.00      0.0    138.6      0.0      0.0      0.0    103.9       18     50.9     50.9       95     0.000     0.000     0.000     0.000       81        0        0        0        0       52        4     2.676       20     30.3    0.811     0.53        8        6     2072  1212_RCP45_rainfed_15March_sandy.PRM
  Tot(57)       15        3     2073    141.1    585.1   1576.5   527.00      0.0    141.1      0.0     41.2      0.0     75.1       13     32.3     32.3       83     0.000     0.000     0.000     0.000       62        0        0        0        0       61       16     1.620       12      6.2    0.100     0.14        8        6     2073  1212_RCP45_rainfed_15March_sandy.PRM
  Tot(58)       15        3     2074    434.8    449.9   1570.6   528.00      0.0    434.8      0.0    208.8      0.0    100.4       31    126.3    126.3       95     0.000     0.000     0.000     0.000       86        0        0        0        0       32        4     9.280       65     30.1    2.789     1.24       14        6     2074  1212_RCP45_rainfed_15March_sandy.PRM
  Tot(59)       15        3     2075    353.4    531.3   1568.0   529.00      0.0    353.4      0.0    203.7      0.0     86.7       20     89.6     89.6       99     0.000     0.000     0.000     0.000       83        0        0        0        0       38        1     7.056       50     30.0    2.117     1.20       11        6     2075  1212_RCP45_rainfed_15March_sandy.PRM
  Tot(60)       15        3     2076    221.3    529.4   1570.9   530.00      0.0    221.3      0.0     16.5      0.0    119.5       27     54.4     54.4       71     0.000     0.000     0.000     0.000       81        0        0        0        0       50       14     2.623       19     30.7    0.805     0.47        8        6     2076  1212_RCP45_rainfed_15March_sandy.PRM
  Tot(61)       15        3     2077    241.6    536.2   1559.9   530.00      0.0    241.6      0.0     51.4      0.0    108.0       23     83.7     83.7       95     0.000     0.000     0.000     0.000       80        0        0        0        0       47        2     5.084       38     30.1    1.530     0.81        8        6     2077  1212_RCP45_rainfed_15March_sandy.PRM
  Tot(62)       15        3     2078     37.6    598.0   1560.8   531.00      0.0     37.6      0.0      0.0      0.0     52.2        9     39.7     39.7       85     0.000     0.000     0.000     0.000       78        0        0        0        0       61       14     2.002       15     25.5    0.511     0.56        5        6     2078  1212_RCP45_rainfed_15March_sandy.PRM
  Tot(63)       15        3     2079    119.4    550.8   1568.9   531.00      0.0    119.4      0.0      4.2      0.0     77.2       21     96.7     96.7       69     0.000     0.000     0.000     0.000       72        0        0        0        0       35       27     5.586       42     21.3    1.187     0.74        7        6     2079  1212_RCP45_rainfed_15March_sandy.PRM
  Tot(64)       15        3     2080     76.4    592.2   1567.9   531.00      0.0     76.4      0.0      0.0      0.0     64.8       13     80.1     80.1       72     0.000     0.000     0.000     0.000       74        0        0        0        0       45       25     4.491       34     26.1    1.173     0.81        6        6     2080  1212_RCP45_rainfed_15March_sandy.PRM
  Tot(65)       15        3     2081    133.6    600.5   1557.1   531.00      0.0    133.6      0.0      0.0      0.0     97.9       16     40.0     40.0       92     0.000     0.000     0.000     0.000       79        0        0        0        0       64        5     1.910       15     27.6    0.528     0.38        5        6     2081  1212_RCP45_rainfed_15March_sandy.PRM
  Tot(66)       15        3     2082    119.1    567.7   1559.0   531.00      0.0    119.1      0.0      0.0      0.0     61.4       15    110.8    110.8       84     0.000     0.000     0.000     0.000       79        0        0        0        0       41       11     6.470       47     30.2    1.956     1.14        6        6     2082  1212_RCP45_rainfed_15March_sandy.PRM
  Tot(67)       15        3     2083     16.2    635.5   1567.7   532.00      0.0     16.2      0.0      0.0      0.0     35.6        6     33.2     33.2       86     0.000     0.000     0.000     0.000       68        0        0        0        0       64       15     1.569       12     17.4    0.273     0.44        3        6     2083  1212_RCP45_rainfed_15March_sandy.PRM
  Tot(68)       15        3     2084    185.9    583.3   1571.5   532.00      0.0    185.9      0.0     53.2      0.0     67.3       14     65.1     65.1       68     0.000     0.000     0.000     0.000       63        0        0        0        0       43       24     3.567       28      4.6    0.164     0.16        7        6     2084  1212_RCP45_rainfed_15March_sandy.PRM
  Tot(69)       15        3     2085    147.8    585.5   1558.2   532.00      0.0    147.8      0.0     27.1      0.0     79.4       14     44.6     44.6       84     0.000     0.000     0.000     0.000       77        0        0        0        0       57       14     2.326       18     24.2    0.563     0.47        5        6     2085  1212_RCP45_rainfed_15March_sandy.PRM
  Tot(70)       15        3     2086    149.0    600.0   1568.4   532.00      0.0    149.0      0.0     59.6      0.0     51.4        8     34.0     34.0       92     0.000     0.000     0.000     0.000       77        0        0        0        0       60        9     1.618       13     19.4    0.315     0.39        4        6     2086  1212_RCP45_rainfed_15March_sandy.PRM
  Tot(71)       15        3     2087     79.5    552.6   1567.1   533.00      0.0     79.5      0.0      0.0      0.0     83.4       16     35.7     35.7       81     0.000     0.000     0.000     0.000       70        0        0        0        0       60       16     1.885       14     15.3    0.289     0.32        6        6     2087  1212_RCP45_rainfed_15March_sandy.PRM
  Tot(72)       15        3     2088    103.6    615.0   1557.8   533.00      0.0    103.6      0.0      9.3      0.0     54.7        9     30.9     30.9       85     0.000     0.000     0.000     0.000       79        0        0        0        0       64       13     1.361       11     12.3    0.168     0.20        5        6     2088  1212_RCP45_rainfed_15March_sandy.PRM
  Tot(73)       15        3     2089     37.4    582.6   1571.3   533.00      0.0     37.4      0.0      0.0      0.0     51.4        9     47.1     47.1       81     0.000     0.000     0.000     0.000       72        0        0        0        0       55       19     2.519       19     25.1    0.631     0.65        4        6     2089  1212_RCP45_rainfed_15March_sandy.PRM
  Tot(74)       15        3     2090    307.8    512.9   1571.8   534.00      0.0    307.8      0.0    142.5      0.0     92.6       19     35.8     35.8       84     0.000     0.000     0.000     0.000       82        0        0        0        0       59        9     1.957       15     28.7    0.561     0.44        9        6     2090  1212_RCP45_rainfed_15March_sandy.PRM
  Tot(75)       15        3     2091    166.3    590.6   1561.5   534.00      0.0    166.3      0.0     65.9      0.0     56.5       10     32.3     32.3       86     0.000     0.000     0.000     0.000       78        0        0        0        0       63       12     1.549       12     15.4    0.239     0.27        6        6     2091  1212_RCP45_rainfed_15March_sandy.PRM
  Tot(76)       15        3     2092    492.0    432.9   1563.2   535.00      0.0    492.0      0.0    269.9      0.0    107.9       32    103.8    103.8       96     0.000     0.000     0.000     0.000       85        0        0        0        0       38        2     8.434       59     30.5    2.570     1.22       12        6     2092  1212_RCP45_rainfed_15March_sandy.PRM
  Tot(77)       15        3     2093     88.0    612.2   1574.4   535.00      0.0     88.0      0.0      0.0      0.0     72.9       16     73.4     73.4       64     0.000     0.000     0.000     0.000       77        0        0        0        0       39       33     4.066       31      7.6    0.311     0.22        5        6     2093  1212_RCP45_rainfed_15March_sandy.PRM
  Tot(78)       15        3     2094    202.0    539.8   1562.5   535.00      0.0    202.0      0.0      5.1      0.0     93.4       25     98.7     98.7       66     0.000     0.000     0.000     0.000       79        0        0        0        0       32       19     5.919       44     27.5    1.627     0.85        6        6     2094  1212_RCP45_rainfed_15March_sandy.PRM
  Tot(79)       15        3     2095     30.4    600.5   1569.0   536.00      0.0     30.4      0.0      0.0      0.0     48.5        8     39.0     39.0       81     0.000     0.000     0.000     0.000       62        0        0        0        0       58       17     2.123       17     14.1    0.299     0.40        5        6     2095  1212_RCP45_rainfed_15March_sandy.PRM
  Tot(80)       15        3     2096    151.9    583.6   1558.3   536.00      0.0    151.9      0.0     33.2      0.0     70.1       16     93.2     93.2       75     0.000     0.000     0.000     0.000       76        0        0        0        0       40       13     4.697       37      9.5    0.446     0.27        4        6     2096  1212_RCP45_rainfed_15March_sandy.PRM
  Tot(81)       15        3     2097     91.8    594.7   1563.7   537.00      0.0     91.8      0.0      0.0      0.0     65.6       12     54.9     54.9       74     0.000     0.000     0.000     0.000       72        0        0        0        0       51       23     2.939       23     24.4    0.718     0.66        5        6     2097  1212_RCP45_rainfed_15March_sandy.PRM
  Tot(82)       15        3     2098     60.5    611.3   1557.2   537.00      0.0     60.5      0.0      0.0      0.0     71.1       12     32.9     32.9       88     0.000     0.000     0.000     0.000       77        0        0        0        0       68        7     1.522       12     24.7    0.376     0.36        3        6     2098  1212_RCP45_rainfed_15March_sandy.PRM
  Tot(83)       15        3     2099    133.1    565.3   1568.8   538.00      0.0    133.1      0.0      0.0      0.0     86.5       17     59.6     59.6       81     0.000     0.000     0.000     0.000       78        0        0        0        0       55       20     3.243       24     30.3    0.982     0.68        5        6     2099  1212_RCP45_rainfed_15March_sandy.PRM
