AquaCrop 6.0 (March 2017) - Output created on (date) : 28/06/2021   at (time) : 14:24:06

    RunNr     Day1   Month1    Year1     Rain      ETo       GD     CO2      Irri   Infilt   Runoff    Drain   Upflow        E     E/Ex       Tr      TrW   Tr/Trx    SaltIn   SaltOut    SaltUp  SaltProf     Cycle   SaltStr  FertStr  WeedStr  TempStr   ExpStr   StoStr  BioMass  Brelative   HI     Yield     WPet     DayN   MonthN    YearN
                                           mm       mm    °C.day    ppm        mm       mm       mm       mm       mm       mm        %       mm       mm        %    ton/ha    ton/ha    ton/ha    ton/ha      days       %        %        %        %        %        %    ton/ha        %       %    ton/ha    kg/m3
   Tot(1)       15        3     2017     27.6    633.0   1568.6   404.00    420.7     27.6      0.0      0.0      0.0    188.8       57    271.6    271.6      100     0.000     0.000     0.000     0.000       82        0        0        0        0        2        0    12.961       98     30.0    3.889     0.85       11        6     2017  1311_RCP45_net_15March_sandy.PRM
   Tot(2)       15        3     2018    260.5    552.9   1566.6   407.00    351.6    260.5      0.0    182.2      0.0    187.7       65    247.7    247.7      100     0.000     0.000     0.000     0.000       85        0        0        0        1        1        0    13.431       99     30.0    4.032     0.93       14        6     2018  1311_RCP45_net_15March_sandy.PRM
   Tot(3)       15        3     2019     35.8    635.7   1575.6   409.00    442.1     35.8      0.0      0.0      0.0    211.2       67    278.7    278.7      100     0.000     0.000     0.000     0.000       82        0        0        0        0        2        0    12.948       99     30.0    3.888     0.80       10        6     2019  1311_RCP45_net_15March_sandy.PRM
   Tot(4)       15        3     2020    175.3    593.4   1561.8   411.00    401.0    175.3      0.0     96.2      0.0    182.3       61    283.6    283.6      100     0.000     0.000     0.000     0.000       84        0        0        0        0        2        0    13.153       99     30.0    3.950     0.85       12        6     2020  1311_RCP45_net_15March_sandy.PRM
   Tot(5)       15        3     2021    480.2    424.3   1563.5   413.00    193.7    480.2      0.0    312.5      0.0    159.1       71    193.9    193.9      100     0.000     0.000     0.000     0.000       89        0        0        0        1        0        0    14.000       99     30.0    4.201     1.19       17        6     2021  1311_RCP45_net_15March_sandy.PRM
   Tot(6)       15        3     2022    206.6    533.7   1570.6   416.00    288.9    206.6      0.0     85.3      0.0    174.1       63    239.9    239.9      100     0.000     0.000     0.000     0.000       85        0        0        0        0        1        0    13.723       99     30.0    4.117     1.00       13        6     2022  1311_RCP45_net_15March_sandy.PRM
   Tot(7)       15        3     2023    277.1    499.2   1564.9   418.00    293.5    277.1      0.0    152.7      0.0    171.1       65    230.7    230.7      100     0.000     0.000     0.000     0.000       86        0        0        0        0        1        0    13.502       99     30.0    4.052     1.01       15        6     2023  1311_RCP45_net_15March_sandy.PRM
   Tot(8)       15        3     2024     89.6    588.3   1573.5   420.00    355.9     89.6      0.0     15.7      0.0    183.6       61    257.6    257.6      100     0.000     0.000     0.000     0.000       84        0        0        0        1        1        0    13.362       99     30.0    4.012     0.92       13        6     2024  1311_RCP45_net_15March_sandy.PRM
   Tot(9)       15        3     2025     26.4    695.9   1570.2   423.00    487.3     26.4      0.0      0.0      0.0    188.5       56    333.2    333.2      100     0.000     0.000     0.000     0.000       82        0        0        0        0        3        0    13.080       98     30.0    3.929     0.76       10        6     2025  1311_RCP45_net_15March_sandy.PRM
  Tot(10)       15        3     2026    177.7    542.5   1565.0   425.00    282.1    177.7      0.0     41.7      0.0    173.0       64    249.1    249.1      100     0.000     0.000     0.000     0.000       84        0        0        0        0        1        0    13.401       99     30.0    4.023     0.96       12        6     2026  1311_RCP45_net_15March_sandy.PRM
  Tot(11)       15        3     2027     48.1    620.3   1559.6   428.00    398.9     48.1      0.0      4.7      0.0    179.3       57    275.1    275.1      100     0.000     0.000     0.000     0.000       79        0        0        0        0        2        0    12.760       98     30.0    3.831     0.85        7        6     2027  1311_RCP45_net_15March_sandy.PRM
  Tot(12)       15        3     2028    223.5    525.9   1574.8   430.00    255.0    223.5      0.0     68.2      0.0    186.8       66    226.0    226.0      100     0.000     0.000     0.000     0.000       87        0        0        0        0        1        0    14.053       99     30.0    4.217     1.03       16        6     2028  1311_RCP45_net_15March_sandy.PRM
  Tot(13)       15        3     2029     47.0    578.1   1575.2   433.00    382.0     47.0      0.0      0.0      0.0    175.1       63    266.1    266.1      100     0.000     0.000     0.000     0.000       82        0        0        0        0        2        0    13.271       99     30.0    3.984     0.91       10        6     2029  1311_RCP45_net_15March_sandy.PRM
  Tot(14)       15        3     2030    145.1    527.1   1561.9   435.00    284.5    145.1      0.0     21.5      0.0    178.7       66    236.8    236.8      100     0.000     0.000     0.000     0.000       84        0        0        0        0        1        0    13.725       99     30.0    4.119     1.00       12        6     2030  1311_RCP45_net_15March_sandy.PRM
  Tot(15)       15        3     2031    104.7    568.2   1562.4   438.00    328.8    104.7      0.0      9.6      0.0    183.4       67    252.4    252.4      100     0.000     0.000     0.000     0.000       83        0        0        0        0        1        0    13.668       99     30.0    4.101     0.95       10        6     2031  1311_RCP45_net_15March_sandy.PRM
  Tot(16)       15        3     2032     65.1    566.5   1568.7   440.00    366.1     65.1      0.0      0.0      0.0    202.8       70    239.8    239.8      100     0.000     0.000     0.000     0.000       81        0        0        0        0        1        0    13.280       99     30.0    3.985     0.91       10        6     2032  1311_RCP45_net_15March_sandy.PRM
  Tot(17)       15        3     2033    354.1    553.7   1564.1   443.00    347.1    354.1      0.0    256.2      0.0    179.1       64    254.0    254.0      100     0.000     0.000     0.000     0.000       82        0        0        0        0        1        0    13.214       99     30.0    3.967     0.92       11        6     2033  1311_RCP45_net_15March_sandy.PRM
  Tot(18)       15        3     2034    252.9    485.3   1564.5   445.00    277.7    252.9      0.0    129.5      0.0    173.4       70    221.9    221.9      100     0.000     0.000     0.000     0.000       85        0        0        0        0        0        0    13.838       99     30.0    4.154     1.06       13        6     2034  1311_RCP45_net_15March_sandy.PRM
  Tot(19)       15        3     2035    143.6    531.0   1570.0   448.00    280.5    143.6      0.0     33.6      0.0    158.9       58    240.5    240.5      100     0.000     0.000     0.000     0.000       82        0        0        0        0        1        0    13.323       99     30.0    4.000     1.00       10        6     2035  1311_RCP45_net_15March_sandy.PRM
  Tot(20)       15        3     2036    194.1    535.8   1563.4   450.00    248.2    194.1      0.0     55.5      0.0    175.7       60    219.3    219.3      100     0.000     0.000     0.000     0.000       82        0        0        0        0        2        0    13.447       98     30.0    4.035     1.03       10        6     2036  1311_RCP45_net_15March_sandy.PRM
  Tot(21)       15        3     2037    131.3    518.3   1563.5   453.00    348.8    131.3      0.0     43.1      0.0    174.7       74    263.4    263.4      100     0.000     0.000     0.000     0.000       83        0        0        0        0        1        0    13.524       99     30.0    4.061     0.93       11        6     2037  1311_RCP45_net_15March_sandy.PRM
  Tot(22)       15        3     2038    206.3    543.7   1570.9   456.00    278.2    206.3      0.0     71.4      0.0    178.2       64    242.8    242.8      100     0.000     0.000     0.000     0.000       84        0        0        0        0        2        0    13.949       99     30.0    4.185     1.00       12        6     2038  1311_RCP45_net_15March_sandy.PRM
  Tot(23)       15        3     2039    179.6    475.2   1570.5   458.00    231.7    179.6      0.0     29.3      0.0    173.1       69    209.3    209.3      100     0.000     0.000     0.000     0.000       85        0        0        0        0        1        0    13.922       99     30.0    4.177     1.10       13        6     2039  1311_RCP45_net_15March_sandy.PRM
  Tot(24)       15        3     2040     84.2    540.8   1565.3   461.00    336.4     84.2      0.0     16.1      0.0    181.9       66    233.4    233.4      100     0.000     0.000     0.000     0.000       81        0        0        0        0        1        0    13.349       99     30.0    4.006     0.97        9        6     2040  1311_RCP45_net_15March_sandy.PRM
  Tot(25)       15        3     2041     34.1    639.0   1575.5   463.00    425.8     34.1      0.0      0.0      0.0    199.0       60    273.5    273.5      100     0.000     0.000     0.000     0.000       82        0        0        0        0        2        0    12.980       98     30.0    3.898     0.83       10        6     2041  1311_RCP45_net_15March_sandy.PRM
  Tot(26)       15        3     2042     88.5    556.5   1560.6   466.00    331.5     88.5      0.0     10.0      0.0    187.0       67    234.7    234.7      100     0.000     0.000     0.000     0.000       82        0        0        0        0        0        0    13.467       99     30.0    4.041     0.97       10        6     2042  1311_RCP45_net_15March_sandy.PRM
  Tot(27)       15        3     2043    186.0    579.3   1573.4   469.00    376.2    186.0      0.0    103.6      0.0    185.6       66    276.1    276.1      100     0.000     0.000     0.000     0.000       83        0        0        0        0        2        0    13.090       99     30.0    3.932     0.85       11        6     2043  1311_RCP45_net_15March_sandy.PRM
  Tot(28)       15        3     2044    214.6    548.5   1558.9   471.00    340.1    214.6      0.0    105.9      0.0    189.1       66    247.8    247.8      100     0.000     0.000     0.000     0.000       81        0        0        0        0        1        0    13.039       99     30.0    3.917     0.90        9        6     2044  1311_RCP45_net_15March_sandy.PRM
  Tot(29)       15        3     2045    433.7    451.7   1565.8   474.00    175.1    433.7      0.0    245.5      0.0    167.1       75    197.7    197.7      100     0.000     0.000     0.000     0.000       86        0        0        0        0        0        0    14.427       99     30.0    4.329     1.19       13        6     2045  1311_RCP45_net_15March_sandy.PRM
  Tot(30)       15        3     2046    294.2    520.1   1569.3   476.00    301.6    294.2      0.0    153.3      0.0    180.3       66    239.4    239.4      100     0.000     0.000     0.000     0.000       86        0        0        0        1        1        0    13.732       99     30.0    4.122     0.98       14        6     2046  1311_RCP45_net_15March_sandy.PRM
  Tot(31)       15        3     2047    345.4    488.8   1561.1   479.00    271.8    345.4      0.0    208.4      0.0    158.5       63    229.8    229.8      100     0.000     0.000     0.000     0.000       84        0        0        0        0        1        0    13.543       99     30.0    4.064     1.05       12        6     2047  1311_RCP45_net_15March_sandy.PRM
  Tot(32)       15        3     2048    124.0    536.5   1566.6   481.00    319.6    124.0      0.0     20.4      0.0    177.4       67    247.6    247.6      100     0.000     0.000     0.000     0.000       81        0        0        0        0        2        0    13.358       99     30.0    4.011     0.95        9        6     2048  1311_RCP45_net_15March_sandy.PRM
  Tot(33)       15        3     2049     52.1    578.0   1563.5   484.00    365.6     52.1      0.0      0.0      0.0    189.3       65    240.3    240.3      100     0.000     0.000     0.000     0.000       80        0        0        0        0        1        0    13.327       99     30.0    4.000     0.94        8        6     2049  1311_RCP45_net_15March_sandy.PRM
  Tot(34)       15        3     2050    251.4    498.5   1561.1   487.00    197.6    251.4      0.0     82.4      0.0    163.6       60    199.3    199.3      100     0.000     0.000     0.000     0.000       83        0        0        0        0        1        0    13.883       99     30.0    4.166     1.15       10        6     2050  1311_RCP45_net_15March_sandy.PRM
  Tot(35)       15        3     2051    125.2    595.9   1564.2   489.00    370.0    125.2      0.0     45.4      0.0    176.9       61    275.5    275.5      100     0.000     0.000     0.000     0.000       80        0        0        0        0        2        0    13.070       99     30.0    3.926     0.87        8        6     2051  1311_RCP45_net_15March_sandy.PRM
  Tot(36)       15        3     2052    120.1    567.3   1557.1   492.00    377.7    120.1      0.0     51.7      0.0    188.9       70    265.8    265.8      100     0.000     0.000     0.000     0.000       81        0        0        0        0        1        0    13.079       99     30.0    3.926     0.86        8        6     2052  1311_RCP45_net_15March_sandy.PRM
  Tot(37)       15        3     2053    321.9    534.5   1564.9   494.00    319.7    321.9      0.0    230.6      0.0    164.3       59    248.4    248.4      100     0.000     0.000     0.000     0.000       83        0        0        0        0        1        0    13.492       99     30.0    4.051     0.99       11        6     2053  1311_RCP45_net_15March_sandy.PRM
  Tot(38)       15        3     2054    114.2    563.5   1558.0   496.00    351.6    114.2      0.0     46.3      0.0    186.4       66    244.2    244.2      100     0.000     0.000     0.000     0.000       78        0        0        0        0        1        0    13.182       99     30.0    3.958     0.93        6        6     2054  1311_RCP45_net_15March_sandy.PRM
  Tot(39)       15        3     2055    238.5    524.2   1559.0   498.00    254.4    238.5      0.0     68.7      0.0    175.4       66    234.7    234.7      100     0.000     0.000     0.000     0.000       82        0        0        0        0        1        0    13.721       99     30.0    4.117     1.01       10        6     2055  1311_RCP45_net_15March_sandy.PRM
  Tot(40)       15        3     2056    151.9    520.5   1567.4   501.00    284.7    151.9      0.0     44.1      0.0    165.9       66    238.3    238.3      100     0.000     0.000     0.000     0.000       81        0        0        0        0        1        0    13.696       99     30.0    4.112     1.03        8        6     2056  1311_RCP45_net_15March_sandy.PRM
  Tot(41)       15        3     2057     87.9    581.4   1570.5   503.00    394.3     87.9      0.0     35.4      0.0    196.7       66    262.2    262.2      100     0.000     0.000     0.000     0.000       80        0        0        0        0        2        0    13.065       98     30.0    3.921     0.86        8        6     2057  1311_RCP45_net_15March_sandy.PRM
  Tot(42)       15        3     2058    294.3    494.3   1567.7   505.00    251.8    294.3      0.0    126.9      0.0    160.9       64    232.3    232.3      100     0.000     0.000     0.000     0.000       83        0        0        0        0        1        0    13.692       99     30.0    4.111     1.05       12        6     2058  1311_RCP45_net_15March_sandy.PRM
  Tot(43)       15        3     2059    596.6    492.1   1575.3   507.00    233.4    596.6      0.0    438.9      0.0    170.1       65    207.9    207.9      100     0.000     0.000     0.000     0.000       85        0        0        0        0        1        0    14.285       99     30.0    4.288     1.14       13        6     2059  1311_RCP45_net_15March_sandy.PRM
  Tot(44)       15        3     2060    125.0    516.0   1569.3   509.00    281.5    125.0      0.0     16.1      0.0    163.1       63    233.4    233.4      100     0.000     0.000     0.000     0.000       79        0        0        0        0        2        0    13.216       99     30.0    3.967     1.00        7        6     2060  1311_RCP45_net_15March_sandy.PRM
  Tot(45)       15        3     2061    175.2    539.9   1574.4   511.00    341.8    175.2      0.0     95.2      0.0    191.7       73    241.8    241.8      100     0.000     0.000     0.000     0.000       82        0        0        0        0        1        0    13.467       99     30.0    4.042     0.94       10        6     2061  1311_RCP45_net_15March_sandy.PRM
  Tot(46)       15        3     2062    118.3    576.4   1570.1   513.00    379.7    118.3      0.0     37.8      0.0    194.0       66    261.5    261.5      100     0.000     0.000     0.000     0.000       81        0        0        0        0        2        0    13.263       99     30.0    3.982     0.88        9        6     2062  1311_RCP45_net_15March_sandy.PRM
  Tot(47)       15        3     2063    184.8    554.5   1568.0   514.00    365.9    184.8      0.0     52.8      0.0    182.5       70    259.2    259.2      100     0.000     0.000     0.000     0.000       80        0        0        0        0        2        0    13.117       99     30.0    3.937     0.90        7        6     2063  1311_RCP45_net_15March_sandy.PRM
  Tot(48)       15        3     2064    222.8    542.5   1569.6   516.00    257.6    222.8      0.0     81.5      0.0    170.4       60    233.9    233.9      100     0.000     0.000     0.000     0.000       85        0        0        0        0        1        0    13.701       99     30.0    4.112     1.02       13        6     2064  1311_RCP45_net_15March_sandy.PRM
  Tot(49)       15        3     2065     94.6    582.6   1564.3   518.00    363.5     94.6      0.0     25.3      0.0    198.1       68    246.4    246.4      100     0.000     0.000     0.000     0.000       79        0        0        0        0        2        0    13.159       99     30.0    3.948     0.90        7        6     2065  1311_RCP45_net_15March_sandy.PRM
  Tot(50)       15        3     2066    295.3    529.3   1569.0   519.00    282.1    295.3      0.0    176.3      0.0    172.8       61    220.8    220.8      100     0.000     0.000     0.000     0.000       82        0        0        0        0        1        0    13.439       98     30.0    4.034     1.03        9        6     2066  1311_RCP45_net_15March_sandy.PRM
  Tot(51)       15        3     2067    171.3    533.8   1558.7   520.00    277.3    171.3      0.0     77.2      0.0    167.7       59    215.6    215.6      100     0.000     0.000     0.000     0.000       81        0        0        0        0        2        0    13.591       99     30.0    4.077     1.07        9        6     2067  1311_RCP45_net_15March_sandy.PRM
  Tot(52)       15        3     2068    172.9    549.8   1575.3   522.00    335.1    172.9      0.0     86.0      0.0    167.3       64    255.6    255.6      100     0.000     0.000     0.000     0.000       82        0        0        0        0        1        0    13.313       99     27.8    3.702     0.88        9        6     2068  1311_RCP45_net_15March_sandy.PRM
  Tot(53)       15        3     2069    251.5    510.0   1570.5   523.00    247.7    251.5      0.0    112.3      0.0    164.8       62    212.7    212.7      100     0.000     0.000     0.000     0.000       82        0        0        0        0        1        0    13.905       99     30.0    4.173     1.11       10        6     2069  1311_RCP45_net_15March_sandy.PRM
  Tot(54)       15        3     2070    422.9    460.7   1560.5   524.00    192.1    422.9      0.0    199.0      0.0    160.4       70    209.4    209.4      100     0.000     0.000     0.000     0.000       85        0        0        0        0        0        0    14.102       99     30.0    4.232     1.15       13        6     2070  1311_RCP45_net_15March_sandy.PRM
  Tot(55)       15        3     2071    215.4    544.3   1566.2   525.00    358.2    215.4      0.0    132.0      0.0    200.1       71    247.3    247.3      100     0.000     0.000     0.000     0.000       81        0        0        0        0        2        0    13.211       98     30.0    3.965     0.89        8        6     2071  1311_RCP45_net_15March_sandy.PRM
  Tot(56)       15        3     2072    209.5    551.5   1573.6   527.00    291.3    209.5      0.0     79.8      0.0    175.4       59    239.1    239.1      100     0.000     0.000     0.000     0.000       82        0        0        0        0        2        0    13.345       98     30.0    4.005     0.97        9        6     2072  1311_RCP45_net_15March_sandy.PRM
  Tot(57)       15        3     2073    172.6    552.6   1565.2   527.00    379.8    172.6      0.0    108.9      0.0    180.1       67    264.0    264.0      100     0.000     0.000     0.000     0.000       80        0        0        0        0        1        0    13.075       99     30.0    3.926     0.89        8        6     2073  1311_RCP45_net_15March_sandy.PRM
  Tot(58)       15        3     2074    565.6    418.2   1561.8   528.00    135.4    565.6      0.0    375.4      0.0    146.3       62    179.3    179.3      100     0.000     0.000     0.000     0.000       86        0        0        0        0        0        0    14.353       99     30.0    4.307     1.33       14        6     2074  1311_RCP45_net_15March_sandy.PRM
  Tot(59)       15        3     2075    491.8    497.7   1558.7   529.00    207.2    491.8      0.0    342.2      0.0    170.7       60    185.5    185.5      100     0.000     0.000     0.000     0.000       83        0        0        0        0        1        0    14.031       98     30.0    4.209     1.20       11        6     2075  1311_RCP45_net_15March_sandy.PRM
  Tot(60)       15        3     2076    277.8    495.6   1564.7   530.00    285.9    277.8      0.0    123.4      0.0    172.1       70    232.5    232.5      100     0.000     0.000     0.000     0.000       81        0        0        0        0        2        0    13.411       99     30.0    4.025     1.00        8        6     2076  1311_RCP45_net_15March_sandy.PRM
  Tot(61)       15        3     2077    282.4    510.6   1558.1   530.00    233.4    282.4      0.0    147.6      0.0    153.7       53    214.0    214.0      100     0.000     0.000     0.000     0.000       80        0        0        0        0        2        0    13.334       98     30.0    4.000     1.10        8        6     2077  1311_RCP45_net_15March_sandy.PRM
  Tot(62)       15        3     2078     90.1    558.8   1561.6   531.00    336.9     90.1      0.0      8.7      0.0    184.4       64    240.9    240.9      100     0.000     0.000     0.000     0.000       79        0        0        0        0        2        0    12.957       98     30.0    3.890     0.92        6        6     2078  1311_RCP45_net_15March_sandy.PRM
  Tot(63)       15        3     2079    204.2    518.2   1568.3   531.00    300.3    204.2      0.0     89.3      0.0    180.7       73    234.4    234.4      100     0.000     0.000     0.000     0.000       80        0        0        0        0        0        0    13.395       99     30.0    4.022     0.98        8        6     2079  1311_RCP45_net_15March_sandy.PRM
  Tot(64)       15        3     2080    145.6    552.4   1571.1   531.00    299.2    145.6      0.0     58.0      0.0    178.2       61    220.6    220.6      100     0.000     0.000     0.000     0.000       79        0        0        0        0        1        0    13.342       99     30.0    4.003     1.01        7        6     2080  1311_RCP45_net_15March_sandy.PRM
  Tot(65)       15        3     2081    212.0    566.5   1566.8   531.00    341.9    212.0      0.0     96.0      0.0    173.9       59    251.3    251.3      100     0.000     0.000     0.000     0.000       79        0        0        0        0        2        0    12.800       98     30.0    3.842     0.91        6        6     2081  1311_RCP45_net_15March_sandy.PRM
  Tot(66)       15        3     2082    183.0    541.3   1572.8   531.00    295.1    183.0      0.0     72.9      0.0    176.1       64    218.8    218.8      100     0.000     0.000     0.000     0.000       80        0        0        0        0        1        0    13.561       99     30.0    4.069     1.03        7        6     2082  1311_RCP45_net_15March_sandy.PRM
  Tot(67)       15        3     2083     37.4    597.5   1557.8   532.00    402.8     37.4      0.0      0.0      0.0    188.6       64    260.5    260.5      100     0.000     0.000     0.000     0.000       76        0        0        0        0        2        0    12.563       98     30.0    3.773     0.85        3        6     2083  1311_RCP45_net_15March_sandy.PRM
  Tot(68)       15        3     2084    241.2    551.3   1564.2   532.00    346.6    241.2      0.0    182.7      0.0    156.3       53    246.6    246.6      100     0.000     0.000     0.000     0.000       79        0        0        0        0        2        0    12.698       98     15.1    1.921     0.48        7        6     2084  1311_RCP45_net_15March_sandy.PRM
  Tot(69)       15        3     2085    210.9    552.5   1565.0   532.00    327.0    210.9      0.0    117.9      0.0    187.1       63    235.4    235.4      100     0.000     0.000     0.000     0.000       78        0        0        0        0        2        0    12.866       98     30.0    3.862     0.92        6        6     2085  1311_RCP45_net_15March_sandy.PRM
  Tot(70)       15        3     2086    191.4    564.1   1559.0   532.00    379.3    191.4      0.0    133.0      0.0    182.6       62    245.2    245.2      100     0.000     0.000     0.000     0.000       77        0        0        0        0        2        0    12.438       98     30.0    3.733     0.88        4        6     2086  1311_RCP45_net_15March_sandy.PRM
  Tot(71)       15        3     2087    149.3    513.2   1563.7   533.00    285.6    149.3      0.0     36.5      0.0    179.5       68    226.0    226.0      100     0.000     0.000     0.000     0.000       80        0        0        0        0        1        0    13.120       99     30.0    3.939     0.98        7        6     2087  1311_RCP45_net_15March_sandy.PRM
  Tot(72)       15        3     2088    147.9    582.5   1574.2   533.00    409.9    147.9      0.0     90.0      0.0    184.0       64    274.2    274.2      100     0.000     0.000     0.000     0.000       79        0        0        0        0        3        0    12.390       98     30.0    3.720     0.82        6        6     2088  1311_RCP45_net_15March_sandy.PRM
  Tot(73)       15        3     2089     91.3    552.6   1573.2   533.00    320.2     91.3      0.0      9.4      0.0    182.9       65    230.7    230.7      100     0.000     0.000     0.000     0.000       78        0        0        0        0        1        0    12.964       99     30.0    3.891     0.95        5        6     2089  1311_RCP45_net_15March_sandy.PRM
  Tot(74)       15        3     2090    384.5    483.3   1564.1   534.00    276.2    384.5      0.0    248.9      0.0    161.3       60    210.0    210.0      100     0.000     0.000     0.000     0.000       82        0        0        0        0        1        0    13.374       98     30.0    4.015     1.08        9        6     2090  1311_RCP45_net_15March_sandy.PRM
  Tot(75)       15        3     2091    214.5    558.2   1570.2   534.00    385.1    214.5      0.0    172.2      0.0    170.6       60    255.0    255.0      100     0.000     0.000     0.000     0.000       79        0        0        0        0        2        0    12.480       99     25.9    3.228     0.76        7        6     2091  1311_RCP45_net_15March_sandy.PRM
  Tot(76)       15        3     2092    602.2    411.8   1559.5   535.00    167.7    602.2      0.0    421.1      0.0    164.0       69    174.7    174.7      100     0.000     0.000     0.000     0.000       84        0        0        0        0        1        0    14.062       99     30.0    4.219     1.25       12        6     2092  1311_RCP45_net_15March_sandy.PRM
  Tot(77)       15        3     2093    139.0    576.0   1564.6   535.00    322.7    139.0      0.0     39.4      0.0    181.2       62    243.5    243.5      100     0.000     0.000     0.000     0.000       77        0        0        0        0        2        0    12.949       98     26.9    3.481     0.83        5        6     2093  1311_RCP45_net_15March_sandy.PRM
  Tot(78)       15        3     2094    295.5    496.3   1561.6   535.00    249.9    295.5      0.0    154.4      0.0    166.2       65    216.6    216.6      100     0.000     0.000     0.000     0.000       80        0        0        0        0        1        0    13.358       99     30.0    4.008     1.05        7        6     2094  1311_RCP45_net_15March_sandy.PRM
  Tot(79)       15        3     2095     62.2    561.6   1559.5   536.00    349.9     62.2      0.0      0.0      0.0    177.4       64    246.5    246.5      100     0.000     0.000     0.000     0.000       77        0        0        0        0        1        0    12.703       99     26.8    3.400     0.81        5        6     2095  1311_RCP45_net_15March_sandy.PRM
  Tot(80)       15        3     2096    176.7    557.2   1575.1   536.00    316.9    176.7      0.0     97.1      0.0    167.3       59    241.0    241.0      100     0.000     0.000     0.000     0.000       77        0        0        0        0        2        0    12.611       99     19.0    2.396     0.59        5        6     2096  1311_RCP45_net_15March_sandy.PRM
  Tot(81)       15        3     2097    195.1    565.7   1565.8   537.00    351.9    195.1      0.0     59.6      0.0    202.0       70    244.1    244.1      100     0.000     0.000     0.000     0.000       79        0        0        0        0        1        0    12.841       99     30.0    3.854     0.86        6        6     2097  1311_RCP45_net_15March_sandy.PRM
  Tot(82)       15        3     2098    119.1    579.6   1560.0   537.00    357.7    119.1      0.0     29.2      0.0    191.4       65    251.1    251.1      100     0.000     0.000     0.000     0.000       77        0        0        0        0        3        0    12.855       98     30.0    3.858     0.88        4        6     2098  1311_RCP45_net_15March_sandy.PRM
  Tot(83)       15        3     2099    225.1    528.6   1569.3   538.00    241.2    225.1      0.0     70.4      0.0    168.9       63    224.6    224.6      100     0.000     0.000     0.000     0.000       79        0        0        0        0        1        0    13.293       99     30.0    3.989     1.02        6        6     2099  1311_RCP45_net_15March_sandy.PRM
