AquaCrop 6.0 (March 2017) - Output created on (date) : 28/06/2021   at (time) : 14:19:14

    RunNr     Day1   Month1    Year1     Rain      ETo       GD     CO2      Irri   Infilt   Runoff    Drain   Upflow        E     E/Ex       Tr      TrW   Tr/Trx    SaltIn   SaltOut    SaltUp  SaltProf     Cycle   SaltStr  FertStr  WeedStr  TempStr   ExpStr   StoStr  BioMass  Brelative   HI     Yield     WPet     DayN   MonthN    YearN
                                           mm       mm    °C.day    ppm        mm       mm       mm       mm       mm       mm        %       mm       mm        %    ton/ha    ton/ha    ton/ha    ton/ha      days       %        %        %        %        %        %    ton/ha        %       %    ton/ha    kg/m3
   Tot(1)       15        4     2017    558.6    542.5   1565.7   404.00    341.1    558.6      0.0    437.5      0.0    156.2       53    251.9    251.9      100     0.000     0.000     0.000     0.000       79        0        0        0        0        2        0    12.364       98     30.0    3.712     0.91        7        7     2017  1311_RCP45_net_15April_sandy.PRM
   Tot(2)       15        4     2018    664.0    467.0   1564.2   407.00    262.9    664.0      0.0    536.9      0.0    161.3       66    224.3    224.3      100     0.000     0.000     0.000     0.000       83        0        0        0        0        1        0    13.329       99     30.0    3.999     1.04       11        7     2018  1311_RCP45_net_15April_sandy.PRM
   Tot(3)       15        4     2019    124.3    596.8   1570.5   409.00    379.0    124.3      0.0      6.2      0.0    157.1       51    271.5    271.5      100     0.000     0.000     0.000     0.000       76        0        0        0        0        2        0    11.857       97     16.1    1.912     0.45        4        7     2019  1311_RCP45_net_15April_sandy.PRM
   Tot(4)       15        4     2020    418.4    509.9   1565.0   411.00    256.0    418.4      0.0    267.5      0.0    178.8       63    219.5    219.5      100     0.000     0.000     0.000     0.000       81        0        0        0        0        2        0    13.139       98     30.0    3.942     0.99        9        7     2020  1311_RCP45_net_15April_sandy.PRM
   Tot(5)       15        4     2021   1107.6    323.4   1561.1   413.00    103.7   1107.6      0.0    930.4      0.0    145.2       74    132.3    132.3      100     0.000     0.000     0.000     0.000       90        0        0        0        1        0        0    14.866       99     30.0    4.460     1.62       19        7     2021  1311_RCP45_net_15April_sandy.PRM
   Tot(6)       15        4     2022   1023.2    415.4   1561.3   416.00    164.0   1023.2      0.0    824.9      0.0    148.6       63    189.6    189.6      100     0.000     0.000     0.000     0.000       86        0        0        0        1        1        0    13.776       99     30.0    4.133     1.23       14        7     2022  1311_RCP45_net_15April_sandy.PRM
   Tot(7)       15        4     2023    869.3    387.0   1561.8   418.00    144.6    869.3      0.0    582.5      0.0    162.3       69    155.9    155.9      100     0.000     0.000     0.000     0.000       86        0        0        0        1        1        0    14.292       99     30.0    4.287     1.35       14        7     2023  1311_RCP45_net_15April_sandy.PRM
   Tot(8)       15        4     2024    358.2    492.2   1563.8   420.00    296.6    358.2      0.0    191.9      0.0    177.7       68    235.3    235.3      100     0.000     0.000     0.000     0.000       82        0        0        0        0        1        0    13.112       99     30.0    3.936     0.95       10        7     2024  1311_RCP45_net_15April_sandy.PRM
   Tot(9)       15        4     2025    199.5    597.3   1567.2   423.00    392.2    199.5      0.0     89.5      0.0    237.7       69    258.6    258.6      100     0.000     0.000     0.000     0.000       80        0        0        0        0        3        0    12.599       97     30.0    3.781     0.77        8        7     2025  1311_RCP45_net_15April_sandy.PRM
  Tot(10)       15        4     2026    542.7    486.6   1571.2   425.00    187.5    542.7      0.0    300.9      0.0    162.8       59    210.5    210.5      100     0.000     0.000     0.000     0.000       81        0        0        0        0        1        0    13.141       98     30.0    3.943     1.06        9        7     2026  1311_RCP45_net_15April_sandy.PRM
  Tot(11)       15        4     2027    257.6    560.2   1567.9   428.00    357.1    257.6      0.0    162.1      0.0    174.0       60    267.0    267.0      100     0.000     0.000     0.000     0.000       76        0        0        0        0        2        0    12.221       98     27.4    3.349     0.76        4        7     2027  1311_RCP45_net_15April_sandy.PRM
  Tot(12)       15        4     2028    963.9    415.3   1568.8   430.00    176.2    963.9      0.0    601.5      0.0    167.3       71    188.3    188.3      100     0.000     0.000     0.000     0.000       85        0        0        0        0        1        0    13.800       99     30.0    4.140     1.17       14        7     2028  1311_RCP45_net_15April_sandy.PRM
  Tot(13)       15        4     2029     98.6    581.1   1570.6   433.00    332.1     98.6      0.0     12.8      0.0    185.4       60    241.4    241.4      100     0.000     0.000     0.000     0.000       77        0        0        0        0        2        0    12.446       98     30.0    3.737     0.88        5        7     2029  1311_RCP45_net_15April_sandy.PRM
  Tot(14)       15        4     2030   1089.4    416.0   1563.8   435.00    178.6   1089.4      0.0    842.8      0.0    164.9       70    187.5    187.5      100     0.000     0.000     0.000     0.000       85        0        0        0        0        1        0    13.856       99     30.0    4.158     1.18       13        7     2030  1311_RCP45_net_15April_sandy.PRM
  Tot(15)       15        4     2031    363.7    561.2   1557.9   438.00    353.3    363.7      0.0    230.7      0.0    191.7       68    265.1    265.1      100     0.000     0.000     0.000     0.000       78        0        0        0        0        2        0    12.301       99     19.8    2.434     0.53        6        7     2031  1311_RCP45_net_15April_sandy.PRM
  Tot(16)       15        4     2032    315.9    511.1   1562.4   440.00    297.8    315.9      0.0    176.3      0.0    179.3       70    236.5    236.5      100     0.000     0.000     0.000     0.000       78        0        0        0        0        1        0    12.663       99     30.0    3.801     0.92        6        7     2032  1311_RCP45_net_15April_sandy.PRM
  Tot(17)       15        4     2033    628.6    449.2   1568.8   443.00    221.5    628.6      0.0    478.7      0.0    165.2       64    196.1    196.1      100     0.000     0.000     0.000     0.000       82        0        0        0        0        1        0    13.327       99     30.0    3.998     1.11       10        7     2033  1311_RCP45_net_15April_sandy.PRM
  Tot(18)       15        4     2034    801.8    360.0   1558.1   445.00    147.8    801.8      0.0    564.9      0.0    159.6       75    152.4    152.4      100     0.000     0.000     0.000     0.000       88        0        0        0        1        0        0    14.578       99     30.0    4.373     1.40       16        7     2034  1311_RCP45_net_15April_sandy.PRM
  Tot(19)       15        4     2035    200.1    511.2   1567.3   448.00    271.6    200.1      0.0     69.3      0.0    176.3       68    227.8    227.8      100     0.000     0.000     0.000     0.000       78        0        0        0        0        1        0    12.829       99     30.0    3.850     0.95        6        7     2035  1311_RCP45_net_15April_sandy.PRM
  Tot(20)       15        4     2036    847.0    393.2   1571.0   450.00    155.5    847.0      0.0    674.3      0.0    165.5       71    163.7    163.7      100     0.000     0.000     0.000     0.000       84        0        0        0        0        1        0    13.737       99     30.0    4.123     1.26       12        7     2036  1311_RCP45_net_15April_sandy.PRM
  Tot(21)       15        4     2037    511.9    454.9   1569.9   453.00    260.4    511.9      0.0    380.2      0.0    161.9       63    204.3    204.3      100     0.000     0.000     0.000     0.000       83        0        0        0        0        1        0    13.349       99     30.0    4.005     1.10       11        7     2037  1311_RCP45_net_15April_sandy.PRM
  Tot(22)       15        4     2038   1099.9    447.0   1562.1   456.00    185.2   1099.9      0.0    927.9      0.0    153.1       60    198.5    198.5      100     0.000     0.000     0.000     0.000       84        0        0        0        0        1        0    13.484       99     30.0    4.047     1.15       12        7     2038  1311_RCP45_net_15April_sandy.PRM
  Tot(23)       15        4     2039    541.0    377.1   1560.3   458.00    119.9    541.0      0.0    305.8      0.0    146.2       66    157.6    157.6      100     0.000     0.000     0.000     0.000       83        0        0        0        0        0        0    13.841       99     30.0    4.153     1.37       11        7     2039  1311_RCP45_net_15April_sandy.PRM
  Tot(24)       15        4     2040    617.3    431.9   1559.2   461.00    253.5    617.3      0.0    414.9      0.0    156.8       65    197.7    197.7      100     0.000     0.000     0.000     0.000       80        0        0        0        0        1        0    13.044       99     30.0    3.915     1.11        8        7     2040  1311_RCP45_net_15April_sandy.PRM
  Tot(25)       15        4     2041    139.4    581.7   1563.1   463.00    393.9    139.4      0.0     61.7      0.0    203.2       66    261.2    261.2      100     0.000     0.000     0.000     0.000       77        0        0        0        0        2        0    12.433       98     18.7    2.327     0.50        5        7     2041  1311_RCP45_net_15April_sandy.PRM
  Tot(26)       15        4     2042    210.5    501.0   1563.8   466.00    349.1    210.5      0.0     91.6      0.0    171.3       71    256.0    256.0      100     0.000     0.000     0.000     0.000       77        0        0        0        0        2        0    12.450       99     22.0    2.734     0.64        5        7     2042  1311_RCP45_net_15April_sandy.PRM
  Tot(27)       15        4     2043    490.7    497.9   1562.3   469.00    231.4    490.7      0.0    313.3      0.0    182.3       64    209.2    209.2      100     0.000     0.000     0.000     0.000       80        0        0        0        0        2        0    13.307       98     30.0    3.993     1.02        8        7     2043  1311_RCP45_net_15April_sandy.PRM
  Tot(28)       15        4     2044    885.5    407.1   1566.2   471.00    190.1    885.5      0.0    708.2      0.0    166.2       71    174.3    174.3      100     0.000     0.000     0.000     0.000       81        0        0        0        0        1        0    13.476       99     30.0    4.043     1.19        9        7     2044  1311_RCP45_net_15April_sandy.PRM
  Tot(29)       15        4     2045    883.4    373.6   1564.0   474.00    157.8    883.4      0.0    685.5      0.0    159.7       80    175.7    175.7      100     0.000     0.000     0.000     0.000       85        0        0        0        0        0        0    14.012       99     30.0    4.205     1.26       14        7     2045  1311_RCP45_net_15April_sandy.PRM
  Tot(30)       15        4     2046    957.9    378.9   1561.6   476.00    154.0    957.9      0.0    801.4      0.0    151.0       64    150.8    150.8      100     0.000     0.000     0.000     0.000       86        0        0        0        0        1        0    14.148       99     30.0    4.244     1.41       14        7     2046  1311_RCP45_net_15April_sandy.PRM
  Tot(31)       15        4     2047    743.9    366.2   1558.9   479.00    138.4    743.9      0.0    576.9      0.0    164.0       73    140.7    140.7      100     0.000     0.000     0.000     0.000       85        0        0        0        0        1        0    14.327       99     30.0    4.298     1.42       13        7     2047  1311_RCP45_net_15April_sandy.PRM
  Tot(32)       15        4     2048    451.0    431.7   1566.8   481.00    201.7    451.0      0.0    288.8      0.0    163.2       62    169.3    169.3      100     0.000     0.000     0.000     0.000       82        0        0        0        0        1        0    13.628       98     30.0    4.089     1.23       10        7     2048  1311_RCP45_net_15April_sandy.PRM
  Tot(33)       15        4     2049    396.6    515.8   1558.5   484.00    332.7    396.6      0.0    303.0      0.0    166.1       65    251.3    251.3      100     0.000     0.000     0.000     0.000       77        0        0        0        0        1        0    12.547       99     30.0    3.768     0.90        5        7     2049  1311_RCP45_net_15April_sandy.PRM
  Tot(34)       15        4     2050    911.6    355.2   1571.0   487.00    117.0    911.6      0.0    646.1      0.0    158.6       83    167.7    167.7      100     0.000     0.000     0.000     0.000       85        0        0        0        0        0        0    14.025       99     30.0    4.208     1.29       14        7     2050  1311_RCP45_net_15April_sandy.PRM
  Tot(35)       15        4     2051    587.1    490.5   1562.4   489.00    284.5    587.1      0.0    446.0      0.0    199.9       69    208.6    208.6      100     0.000     0.000     0.000     0.000       79        0        0        0        0        2        0    12.776       98     30.0    3.834     0.94        7        7     2051  1311_RCP45_net_15April_sandy.PRM
  Tot(36)       15        4     2052    637.7    486.7   1567.0   492.00    330.2    637.7      0.0    491.4      0.0    179.1       69    231.8    231.8      100     0.000     0.000     0.000     0.000       79        0        0        0        0        2        0    12.642       99     30.0    3.793     0.92        7        7     2052  1311_RCP45_net_15April_sandy.PRM
  Tot(37)       15        4     2053    765.7    429.8   1565.7   494.00    163.6    765.7      0.0    579.6      0.0    160.1       61    169.4    169.4      100     0.000     0.000     0.000     0.000       82        0        0        0        0        1        0    13.589       99     30.0    4.077     1.24       10        7     2053  1311_RCP45_net_15April_sandy.PRM
  Tot(38)       15        4     2054    862.4    446.5   1567.5   496.00    255.8    862.4      0.0    726.1      0.0    174.3       71    204.5    204.5      100     0.000     0.000     0.000     0.000       80        0        0        0        0        1        0    13.034       99     30.0    3.911     1.03        8        7     2054  1311_RCP45_net_15April_sandy.PRM
  Tot(39)       15        4     2055    496.7    469.3   1572.6   498.00    186.1    496.7      0.0    286.5      0.0    170.2       64    191.1    191.1      100     0.000     0.000     0.000     0.000       81        0        0        0        0        1        0    13.541       99     30.0    4.062     1.13        9        7     2055  1311_RCP45_net_15April_sandy.PRM
  Tot(40)       15        4     2056    974.4    436.0   1568.8   501.00    199.4    974.4      0.0    827.1      0.0    157.4       61    184.4    184.4      100     0.000     0.000     0.000     0.000       82        0        0        0        0        1        0    13.436       99     30.0    4.033     1.18       10        7     2056  1311_RCP45_net_15April_sandy.PRM
  Tot(41)       15        4     2057    826.4    441.0   1558.8   503.00    228.5    826.4      0.0    719.4      0.0    138.6       50    173.6    173.6      100     0.000     0.000     0.000     0.000       81        0        0        0        0        2        0    13.183       98     30.0    3.957     1.27        9        7     2057  1311_RCP45_net_15April_sandy.PRM
  Tot(42)       15        4     2058    822.2    378.2   1557.5   505.00    119.4    822.2      0.0    627.9      0.0    158.4       66    142.9    142.9      100     0.000     0.000     0.000     0.000       86        0        0        0        0        1        0    14.460       99     30.0    4.338     1.44       13        7     2058  1311_RCP45_net_15April_sandy.PRM
  Tot(43)       15        4     2059   1523.1    349.1   1567.6   507.00    119.0   1523.1      0.0   1307.4      0.0    150.1       73    150.5    150.5      100     0.000     0.000     0.000     0.000       88        0        0        0        1        0        0    14.267       99     30.0    4.281     1.43       16        7     2059  1311_RCP45_net_15April_sandy.PRM
  Tot(44)       15        4     2060   1141.7    407.6   1573.9   509.00    197.1   1141.7      0.0   1007.9      0.0    149.8       60    165.6    165.6      100     0.000     0.000     0.000     0.000       81        0        0        0        0        1        0    13.267       99     30.0    3.982     1.27        9        7     2060  1311_RCP45_net_15April_sandy.PRM
  Tot(45)       15        4     2061    519.8    461.9   1570.7   511.00    282.2    519.8      0.0    418.2      0.0    167.2       66    211.7    211.7      100     0.000     0.000     0.000     0.000       80        0        0        0        0        1        0    12.876       99     30.0    3.864     1.03        8        7     2061  1311_RCP45_net_15April_sandy.PRM
  Tot(46)       15        4     2062    703.8    440.3   1565.0   513.00    209.5    703.8      0.0    558.2      0.0    152.9       57    180.8    180.8      100     0.000     0.000     0.000     0.000       81        0        0        0        0        1        0    13.223       98     30.0    3.968     1.19        9        7     2062  1311_RCP45_net_15April_sandy.PRM
  Tot(47)       15        4     2063    700.8    438.5   1570.8   514.00    235.3    700.8      0.0    579.1      0.0    152.6       57    176.1    176.1      100     0.000     0.000     0.000     0.000       81        0        0        0        0        2        0    13.499       98     30.0    4.050     1.23        9        7     2063  1311_RCP45_net_15April_sandy.PRM
  Tot(48)       15        4     2064   1119.6    420.4   1562.0   516.00    176.0   1119.6      0.0    944.6      0.0    154.6       63    184.9    184.9      100     0.000     0.000     0.000     0.000       83        0        0        0        0        1        0    13.649       99     30.0    4.095     1.21       11        7     2064  1311_RCP45_net_15April_sandy.PRM
  Tot(49)       15        4     2065    445.1    530.3   1559.8   518.00    345.0    445.1      0.0    341.1      0.0    165.1       61    259.8    259.8      100     0.000     0.000     0.000     0.000       76        0        0        0        0        2        0    12.419       99      2.7    0.337     0.08        4        7     2065  1311_RCP45_net_15April_sandy.PRM
  Tot(50)       15        4     2066    992.0    362.5   1568.6   519.00    178.9    992.0      0.0    799.7      0.0    160.3       80    163.7    163.7      100     0.000     0.000     0.000     0.000       84        0        0        0        0        1        0    13.864       99     30.0    4.159     1.28       12        7     2066  1311_RCP45_net_15April_sandy.PRM
  Tot(51)       15        4     2067   1353.7    423.6   1569.2   520.00    187.6   1353.7      0.0   1157.2      0.0    146.7       62    191.4    191.4      100     0.000     0.000     0.000     0.000       82        0        0        0        0        1        0    13.463       99     30.0    4.042     1.20       10        7     2067  1311_RCP45_net_15April_sandy.PRM
  Tot(52)       15        4     2068    573.9    448.3   1571.0   522.00    235.3    573.9      0.0    395.1      0.0    159.1       60    188.9    188.9      100     0.000     0.000     0.000     0.000       81        0        0        0        0        2        0    13.191       98     30.0    3.959     1.14        9        7     2068  1311_RCP45_net_15April_sandy.PRM
  Tot(53)       15        4     2069   1047.7    362.3   1557.5   523.00    157.5   1047.7      0.0    903.3      0.0    148.1       65    145.6    145.6      100     0.000     0.000     0.000     0.000       84        0        0        0        0        1        0    14.204       99     30.0    4.261     1.45       13        7     2069  1311_RCP45_net_15April_sandy.PRM
  Tot(54)       15        4     2070   1350.2    356.0   1558.4   524.00    120.1   1350.2      0.0   1080.8      0.0    166.2       82    155.3    155.3      100     0.000     0.000     0.000     0.000       84        0        0        0        0        0        0    13.655       99     30.0    4.096     1.28       12        7     2070  1311_RCP45_net_15April_sandy.PRM
  Tot(55)       15        4     2071    673.1    420.6   1570.7   525.00    169.6    673.1      0.0    505.6      0.0    143.0       55    166.0    166.0      100     0.000     0.000     0.000     0.000       82        0        0        0        0        1        0    13.640       98     30.0    4.092     1.33       10        7     2071  1311_RCP45_net_15April_sandy.PRM
  Tot(56)       15        4     2072    687.4    389.7   1567.8   527.00    118.4    687.4      0.0    490.9      0.0    154.7       65    157.3    157.3      100     0.000     0.000     0.000     0.000       82        0        0        0        0        1        0    13.756       99     30.0    4.127     1.33       10        7     2072  1311_RCP45_net_15April_sandy.PRM
  Tot(57)       15        4     2073    921.8    449.2   1571.7   527.00    216.7    921.8      0.0    743.8      0.0    151.7       57    186.9    186.9      100     0.000     0.000     0.000     0.000       80        0        0        0        0        1        0    13.046       99     30.0    3.914     1.16        8        7     2073  1311_RCP45_net_15April_sandy.PRM
  Tot(58)       15        4     2074   1473.0    279.6   1571.9   528.00     37.7   1473.0      0.0   1250.8      0.0    137.3       76    101.9    101.9      100     0.000     0.000     0.000     0.000       89        0        0        0        0        0        0    15.148       99     30.0    4.544     1.90       17        7     2074  1311_RCP45_net_15April_sandy.PRM
  Tot(59)       15        4     2075   1156.3    365.9   1565.4   529.00     93.5   1156.3      0.0    936.9      0.0    139.3       69    162.7    162.7      100     0.000     0.000     0.000     0.000       82        0        0        0        0        0        0    13.652       99     30.0    4.096     1.37       10        7     2075  1311_RCP45_net_15April_sandy.PRM
  Tot(60)       15        4     2076    847.1    365.4   1565.7   530.00    140.2    847.1      0.0    687.2      0.0    159.4       64    124.5    124.5      100     0.000     0.000     0.000     0.000       83        0        0        0        0        1        0    14.106       98     30.0    4.232     1.49       11        7     2076  1311_RCP45_net_15April_sandy.PRM
  Tot(61)       15        4     2077   1493.2    345.3   1562.4   530.00     84.1   1493.2      0.0   1230.0      0.0    148.0       70    141.2    141.2      100     0.000     0.000     0.000     0.000       83        0        0        0        0        0        0    13.969       99     30.0    4.191     1.45       11        7     2077  1311_RCP45_net_15April_sandy.PRM
  Tot(62)       15        4     2078    441.3    416.0   1558.9   531.00    214.7    441.3      0.0    280.8      0.0    162.4       67    173.7    173.7      100     0.000     0.000     0.000     0.000       79        0        0        0        0        1        0    13.291       99     30.0    3.988     1.19        7        7     2078  1311_RCP45_net_15April_sandy.PRM
  Tot(63)       15        4     2079    634.8    426.3   1560.5   531.00    238.9    634.8      0.0    500.7      0.0    163.8       72    206.9    206.9      100     0.000     0.000     0.000     0.000       79        0        0        0        0        1        0    12.864       99     30.0    3.859     1.04        7        7     2079  1311_RCP45_net_15April_sandy.PRM
  Tot(64)       15        4     2080    702.8    409.1   1574.7   531.00    227.4    702.8      0.0    574.7      0.0    141.4       63    189.9    189.9      100     0.000     0.000     0.000     0.000       79        0        0        0        0        1        0    12.634       99     30.0    3.793     1.15        7        7     2080  1311_RCP45_net_15April_sandy.PRM
  Tot(65)       15        4     2081    843.7    395.9   1573.0   531.00    159.1    843.7      0.0    677.5      0.0    151.3       62    157.7    157.7      100     0.000     0.000     0.000     0.000       81        0        0        0        0        1        0    13.530       99     30.0    4.059     1.32        9        7     2081  1311_RCP45_net_15April_sandy.PRM
  Tot(66)       15        4     2082   1005.4    380.0   1564.7   531.00    216.5   1005.4      0.0    820.0      0.0    152.9       72    175.2    175.2      100     0.000     0.000     0.000     0.000       84        0        0        0        0        2       -0    13.920       99     30.0    4.177     1.27       12        7     2082  1311_RCP45_net_15April_sandy.PRM
  Tot(67)       15        4     2083    515.5    521.1   1573.0   532.00    319.5    515.5      0.0    425.1      0.0    168.0       59    234.2    234.2      100     0.000     0.000     0.000     0.000       76        0        0        0        0        2        0    12.356       98     14.5    1.789     0.45        4        7     2083  1311_RCP45_net_15April_sandy.PRM
  Tot(68)       15        4     2084   1049.1    391.4   1562.7   532.00    204.4   1049.1      0.0    942.0      0.0    153.8       66    159.2    159.2      100     0.000     0.000     0.000     0.000       79        0        0        0        0        1        0    13.405       99     30.0    4.021     1.30        7        7     2084  1311_RCP45_net_15April_sandy.PRM
  Tot(69)       15        4     2085    762.8    417.7   1560.3   532.00    183.3    762.8      0.0    574.1      0.0    162.2       69    183.8    183.8      100     0.000     0.000     0.000     0.000       78        0        0        0        0        1        0    13.068       99     30.0    3.921     1.14        6        7     2085  1311_RCP45_net_15April_sandy.PRM
  Tot(70)       15        4     2086   1172.7    388.6   1564.9   532.00    226.2   1172.7      0.0   1057.9      0.0    146.9       64    166.9    166.9      100     0.000     0.000     0.000     0.000       80        0        0        0        0        1        0    13.443       99     30.0    4.033     1.29        8        7     2086  1311_RCP45_net_15April_sandy.PRM
  Tot(71)       15        4     2087    557.3    432.8   1560.2   533.00    175.9    557.3      0.0    364.6      0.0    165.2       68    179.4    179.4      100     0.000     0.000     0.000     0.000       78        0        0        0        0        1        0    13.258       99     30.0    3.979     1.16        6        7     2087  1311_RCP45_net_15April_sandy.PRM
  Tot(72)       15        4     2088    931.2    420.8   1563.7   533.00    224.8    931.2      0.0    847.0      0.0    144.2       52    158.5    158.5      100     0.000     0.000     0.000     0.000       80        0        0        0        0        2        0    13.523       98     30.0    4.057     1.34        8        7     2088  1311_RCP45_net_15April_sandy.PRM
  Tot(73)       15        4     2089    651.3    449.9   1567.2   533.00    252.4    651.3      0.0    523.4      0.0    165.8       68    205.7    205.7      100     0.000     0.000     0.000     0.000       76        0        0        0        0        2        0    12.458       99     26.0    3.242     0.88        4        7     2089  1311_RCP45_net_15April_sandy.PRM
  Tot(74)       15        4     2090   1368.7    311.9   1558.4   534.00    121.0   1368.7      0.0   1223.3      0.0    139.5       66    103.6    103.6      100     0.000     0.000     0.000     0.000       84        0        0        0        0        0        0    14.704       99     30.0    4.411     1.82       12        7     2090  1311_RCP45_net_15April_sandy.PRM
  Tot(75)       15        4     2091    855.3    455.6   1566.7   534.00    242.0    855.3      0.0    672.3      0.0    147.5       56    194.7    194.7      100     0.000     0.000     0.000     0.000       77        0        0        0        0        2        0    12.850       98     30.0    3.855     1.13        5        7     2091  1311_RCP45_net_15April_sandy.PRM
  Tot(76)       15        4     2092   1246.4    270.3   1567.4   535.00     48.8   1246.4      0.0   1056.7      0.0    131.6       74     95.1     95.1      100     0.000     0.000     0.000     0.000       86        0        0        0        0        0        0    14.638       99     30.0    4.391     1.95       14        7     2092  1311_RCP45_net_15April_sandy.PRM
  Tot(77)       15        4     2093    630.4    423.6   1566.6   535.00    216.2    630.4      0.0    485.8      0.0    160.4       64    181.5    181.5      100     0.000     0.000     0.000     0.000       80        0        0        0        0        2        0    13.169       98     30.0    3.952     1.16        8        7     2093  1311_RCP45_net_15April_sandy.PRM
  Tot(78)       15        4     2094    771.3    364.7   1557.5   535.00    137.8    771.3      0.0    567.0      0.0    161.0       76    154.0    154.0      100     0.000     0.000     0.000     0.000       81        0        0        0        0        1        0    13.464       99     30.0    4.039     1.28        8        7     2094  1311_RCP45_net_15April_sandy.PRM
  Tot(79)       15        4     2095    674.6    435.4   1557.8   536.00    249.2    674.6      0.0    559.9      0.0    156.3       65    203.0    203.0      100     0.000     0.000     0.000     0.000       79        0        0        0        0        1        0    13.143       99     30.0    3.945     1.10        7        7     2095  1311_RCP45_net_15April_sandy.PRM
  Tot(80)       15        4     2096    530.9    413.8   1567.8   536.00    209.9    530.9      0.0    415.3      0.0    143.5       58    174.9    174.9      100     0.000     0.000     0.000     0.000       77        0        0        0        0        1        0    12.843       99     30.0    3.855     1.21        5        7     2096  1311_RCP45_net_15April_sandy.PRM
  Tot(81)       15        4     2097   1009.8    417.4   1570.4   537.00    228.9   1009.8      0.0    878.3      0.0    158.9       66    179.2    179.2      100     0.000     0.000     0.000     0.000       78        0        0        0        0        2        0    12.874       99     30.0    3.863     1.14        6        7     2097  1311_RCP45_net_15April_sandy.PRM
  Tot(82)       15        4     2098    606.3    450.7   1558.5   537.00    205.7    606.3      0.0    466.1      0.0    152.9       56    185.2    185.2      100     0.000     0.000     0.000     0.000       77        0        0        0        0        2        0    12.800       98     30.0    3.840     1.14        5        7     2098  1311_RCP45_net_15April_sandy.PRM
  Tot(83)       15        4     2099    829.8    366.4   1567.7   538.00    153.2    829.8      0.0    658.6      0.0    151.9       69    153.7    153.7      100     0.000     0.000     0.000     0.000       82        0        0        0        0        0        0    13.786       99     30.0    4.136     1.36       10        7     2099  1311_RCP45_net_15April_sandy.PRM
