AquaCrop 6.0 (March 2017) - Output created on (date) : 28/06/2021   at (time) : 14:31:20

    RunNr     Day1   Month1    Year1     Rain      ETo       GD     CO2      Irri   Infilt   Runoff    Drain   Upflow        E     E/Ex       Tr      TrW   Tr/Trx    SaltIn   SaltOut    SaltUp  SaltProf     Cycle   SaltStr  FertStr  WeedStr  TempStr   ExpStr   StoStr  BioMass  Brelative   HI     Yield     WPet     DayN   MonthN    YearN
                                           mm       mm    °C.day    ppm        mm       mm       mm       mm       mm       mm        %       mm       mm        %    ton/ha    ton/ha    ton/ha    ton/ha      days       %        %        %        %        %        %    ton/ha        %       %    ton/ha    kg/m3
   Tot(1)       15        4     2017   1047.0    391.6   1570.8   407.00    120.9   1047.0      0.0    805.7      0.0    162.9       69    161.1    161.1      100     0.000     0.000     0.000     0.000       87        0        0        0        0        0        0    14.154       99     30.0    4.246     1.32       15        7     2017  1311_RCP85_net_15April_sandyloam.PRM
   Tot(2)       15        4     2018   1051.4    422.6   1562.3   410.00    250.1   1051.4      0.0    944.3      0.0    170.7       66    180.8    180.8      100     0.000     0.000     0.000     0.000       86        0        0        0        1        2        0    13.812       99     30.0    4.144     1.18       15        7     2018  1311_RCP85_net_15April_sandyloam.PRM
   Tot(3)       15        4     2019    170.5    552.1   1573.3   413.00    358.5    170.5      0.0     51.0      0.0    231.5       81    249.1    249.1      100     0.000     0.000     0.000     0.000       78        0        0        0        0        1        0    12.548       98     30.0    3.766     0.79        7        7     2019  1311_RCP85_net_15April_sandyloam.PRM
   Tot(4)       15        4     2020    618.5    443.0   1565.1   416.00    260.5    618.5      0.0    476.9      0.0    181.2       74    206.5    206.5      100     0.000     0.000     0.000     0.000       82        0        0        0        0        1        0    13.048       99     30.0    3.915     1.01       10        7     2020  1311_RCP85_net_15April_sandyloam.PRM
   Tot(5)       15        4     2021    779.9    462.4   1562.3   419.00    264.7    779.9      0.0    621.0      0.0    187.3       70    204.3    204.3      100     0.000     0.000     0.000     0.000       85        0        0        0        0        2        0    13.635       98     30.0    4.091     1.05       13        7     2021  1311_RCP85_net_15April_sandyloam.PRM
   Tot(6)       15        4     2022    114.6    626.0   1569.7   422.00    478.7    114.6      0.0     25.8      0.0    234.3       75    285.1    285.1      100     0.000     0.000     0.000     0.000       76        0        0        0        0        3        0    12.123       98     30.0    3.641     0.70        4        7     2022  1311_RCP85_net_15April_sandyloam.PRM
   Tot(7)       15        4     2023    747.1    427.2   1559.6   425.00    217.4    747.1      0.0    608.8      0.0    172.4       64    171.5    171.5      100     0.000     0.000     0.000     0.000       86        0        0        0        1        1        0    13.772       98     30.0    4.132     1.20       15        7     2023  1311_RCP85_net_15April_sandyloam.PRM
   Tot(8)       15        4     2024    795.7    423.6   1562.4   428.00    191.4    795.7      0.0    633.7      0.0    165.7       62    167.3    167.3      100     0.000     0.000     0.000     0.000       84        0        0        0        0        1        0    13.743       98     30.0    4.123     1.24       12        7     2024  1311_RCP85_net_15April_sandyloam.PRM
   Tot(9)       15        4     2025    491.8    446.2   1568.0   431.00    254.7    491.8      0.0    331.2      0.0    180.5       73    208.5    208.5      100     0.000     0.000     0.000     0.000       83        0        0        0        0        1        0    13.212       99     30.0    3.965     1.03       11        7     2025  1311_RCP85_net_15April_sandyloam.PRM
  Tot(10)       15        4     2026    113.1    553.9   1557.3   435.00    380.7    113.1      0.0     17.0      0.0    203.6       80    268.3    268.3      100     0.000     0.000     0.000     0.000       77        0        0        0        0        1        0    12.301       99     21.5    2.643     0.56        5        7     2026  1311_RCP85_net_15April_sandyloam.PRM
  Tot(11)       15        4     2027    369.0    521.3   1569.0   438.00    278.0    369.0      0.0    124.4      0.0    176.0       60    230.2    230.2      100     0.000     0.000     0.000     0.000       82        0        0        0        0        2        0    13.115       98     30.0    3.935     0.97       10        7     2027  1311_RCP85_net_15April_sandyloam.PRM
  Tot(12)       15        4     2028    499.3    476.1   1561.2   442.00    282.4    499.3      0.0    325.8      0.0    191.4       77    227.1    227.1      100     0.000     0.000     0.000     0.000       79        0        0        0        0        2        0    12.625       99     30.0    3.790     0.91        7        7     2028  1311_RCP85_net_15April_sandyloam.PRM
  Tot(13)       15        4     2029    462.9    456.6   1571.5   445.00    221.1    462.9      0.0    269.9      0.0    185.6       76    200.0    200.0      100     0.000     0.000     0.000     0.000       80        0        0        0        0        1       -0    13.020       99     30.0    3.906     1.01        8        7     2029  1311_RCP85_net_15April_sandyloam.PRM
  Tot(14)       15        4     2030    441.9    480.3   1558.0   449.00    262.8    441.9      0.0    277.2      0.0    186.1       73    226.6    226.6      100     0.000     0.000     0.000     0.000       80        0        0        0        0        1        0    12.930       99     30.0    3.880     0.95        8        7     2030  1311_RCP85_net_15April_sandyloam.PRM
  Tot(15)       15        4     2031    803.9    491.1   1570.3   452.00    273.3    803.9      0.0    625.9      0.0    174.0       64    227.4    227.4      100     0.000     0.000     0.000     0.000       81        0        0        0        0        1        0    12.865       99     27.7    3.558     0.89       10        7     2031  1311_RCP85_net_15April_sandyloam.PRM
  Tot(16)       15        4     2032    589.0    475.7   1562.0   456.00    305.8    589.0      0.0    466.5      0.0    201.2       76    222.4    222.4      100     0.000     0.000     0.000     0.000       81        0        0        0        0        2        0    13.037       98     30.0    3.912     0.93        9        7     2032  1311_RCP85_net_15April_sandyloam.PRM
  Tot(17)       15        4     2033    625.8    506.5   1560.5   460.00    307.0    625.8      0.0    499.2      0.0    184.2       65    230.4    230.4      100     0.000     0.000     0.000     0.000       80        0        0        0        0        2        0    12.855       98     30.0    3.857     0.93        8        7     2033  1311_RCP85_net_15April_sandyloam.PRM
  Tot(18)       15        4     2034    970.8    423.0   1559.5   464.00    188.7    970.8      0.0    757.9      0.0    181.0       70    170.2    170.2      100     0.000     0.000     0.000     0.000       83        0        0        0        0        1        0    13.698       98     30.0    4.113     1.17       11        7     2034  1311_RCP85_net_15April_sandyloam.PRM
  Tot(19)       15        4     2035    558.0    425.3   1564.3   468.00    189.6    558.0      0.0    280.1      0.0    186.2       78    183.7    183.7      100     0.000     0.000     0.000     0.000       83        0        0        0        0        1        0    13.658       99     30.0    4.097     1.11       11        7     2035  1311_RCP85_net_15April_sandyloam.PRM
  Tot(20)       15        4     2036    550.4    393.6   1557.0   472.00    149.3    550.4      0.0    369.0      0.0    174.3       75    157.1    157.1      100     0.000     0.000     0.000     0.000       84        0        0        0        0        1        0    13.914       99     30.0    4.175     1.26       11        7     2036  1311_RCP85_net_15April_sandyloam.PRM
  Tot(21)       15        4     2037   1031.0    395.4   1569.7   476.00    215.0   1031.0      0.0    874.3      0.0    215.2       85    147.4    147.4      100     0.000     0.000     0.000     0.000       86        0        0        0        0        1        0    14.301       98     30.0    4.290     1.19       14        7     2037  1311_RCP85_net_15April_sandyloam.PRM
  Tot(22)       15        4     2038    904.8    387.7   1559.0   481.00    196.6    904.8      0.0    699.8      0.0    198.0       82    152.4    152.4      100     0.000     0.000     0.000     0.000       85        0        0        0        0        1        0    14.276       99     30.0    4.283     1.22       13        7     2038  1311_RCP85_net_15April_sandyloam.PRM
  Tot(23)       15        4     2039    680.7    497.6   1565.6   485.00    291.9    680.7      0.0    506.7      0.0    203.0       77    228.8    228.8      100     0.000     0.000     0.000     0.000       80        0        0        0        0        1        0    13.018       99     30.0    3.905     0.91        8        7     2039  1311_RCP85_net_15April_sandyloam.PRM
  Tot(24)       15        4     2040    936.9    448.8   1558.4   489.00    238.1    936.9      0.0    800.2      0.0    192.7       70    181.1    181.1      100     0.000     0.000     0.000     0.000       84        0        0        0        1        2        0    13.974       98     30.0    4.192     1.13       12        7     2040  1311_RCP85_net_15April_sandyloam.PRM
  Tot(25)       15        4     2041    707.7    466.5   1557.7   494.00    282.5    707.7      0.0    538.7      0.0    200.2       79    211.9    211.9      100     0.000     0.000     0.000     0.000       80        0        0        0        0        1        0    13.365       99     30.0    4.011     0.98        8        7     2041  1311_RCP85_net_15April_sandyloam.PRM
  Tot(26)       15        4     2042    404.6    445.5   1571.0   499.00    222.3    404.6      0.0    237.1      0.0    176.5       74    207.7    207.7      100     0.000     0.000     0.000     0.000       82        0        0        0        0        1        0    13.541       99     30.0    4.065     1.06       10        7     2042  1311_RCP85_net_15April_sandyloam.PRM
  Tot(27)       15        4     2043    892.2    387.9   1567.7   504.00    164.6    892.2      0.0    727.9      0.0    165.2       68    152.3    152.3      100     0.000     0.000     0.000     0.000       85        0        0        0        0        1        0    14.361       99     30.0    4.309     1.36       13        7     2043  1311_RCP85_net_15April_sandyloam.PRM
  Tot(28)       15        4     2044    806.4    401.7   1565.7   508.00    216.5    806.4      0.0    616.3      0.0    170.6       72    175.9    175.9      100     0.000     0.000     0.000     0.000       83        0        0        0        0        1        0    13.769       99     30.0    4.132     1.19       11        7     2044  1311_RCP85_net_15April_sandyloam.PRM
  Tot(29)       15        4     2045    631.8    422.3   1566.3   513.00    221.9    631.8      0.0    473.3      0.0    184.9       73    167.0    167.0      100     0.000     0.000     0.000     0.000       83        0        0        0        0        2        0    13.997       98     30.0    4.199     1.20       11        7     2045  1311_RCP85_net_15April_sandyloam.PRM
  Tot(30)       15        4     2046    427.2    562.7   1570.3   519.00    402.0    427.2      0.0    302.0      0.0    192.1       66    263.0    263.0      100     0.000     0.000     0.000     0.000       74        0        0        0        0        3        0    12.003       98      6.7    0.802     0.18        2        7     2046  1311_RCP85_net_15April_sandyloam.PRM
  Tot(31)       15        4     2047    606.7    471.7   1570.2   524.00    289.5    606.7      0.0    475.0      0.0    191.0       76    219.3    219.3      100     0.000     0.000     0.000     0.000       80        0        0        0        0        2        0    13.037       99     30.0    3.913     0.96        8        7     2047  1311_RCP85_net_15April_sandyloam.PRM
  Tot(32)       15        4     2048    942.9    399.3   1566.7   529.00    165.1    942.9      0.0    776.0      0.0    166.9       67    155.2    155.2      100     0.000     0.000     0.000     0.000       83        0        0        0        0        1        0    13.849       99     30.0    4.155     1.30       11        7     2048  1311_RCP85_net_15April_sandyloam.PRM
  Tot(33)       15        4     2049    800.3    418.8   1568.8   535.00    171.6    800.3      0.0    582.2      0.0    181.0       74    177.3    177.3      100     0.000     0.000     0.000     0.000       84        0        0        0        0        1        0    13.993       99     30.0    4.200     1.18       12        7     2049  1311_RCP85_net_15April_sandyloam.PRM
  Tot(34)       15        4     2050    615.1    399.5   1573.0   541.00    155.0    615.1      0.0    403.9      0.0    176.8       84    170.6    170.6      100     0.000     0.000     0.000     0.000       84        0        0        0        0        1        0    14.130       99     30.0    4.239     1.22       13        7     2050  1311_RCP85_net_15April_sandyloam.PRM
  Tot(35)       15        4     2051    485.7    448.8   1557.8   546.00    307.0    485.7      0.0    355.1      0.0    174.8       81    233.6    233.6      100     0.000     0.000     0.000     0.000       79        0        0        0        0        1        0    12.504       99     10.2    1.282     0.31        7        7     2051  1311_RCP85_net_15April_sandyloam.PRM
  Tot(36)       15        4     2052    720.2    502.4   1558.7   552.00    320.9    720.2      0.0    570.2      0.0    203.8       80    236.9    236.9      100     0.000     0.000     0.000     0.000       77        0        0        0        0        1        0    12.560       99     20.5    2.575     0.58        5        7     2052  1311_RCP85_net_15April_sandyloam.PRM
  Tot(37)       15        4     2053    609.8    443.0   1571.9   558.00    182.3    609.8      0.0    404.0      0.0    173.8       69    193.3    193.3      100     0.000     0.000     0.000     0.000       82        0        0        0        0        1        0    13.639       99     30.0    4.094     1.12       10        7     2053  1311_RCP85_net_15April_sandyloam.PRM
  Tot(38)       15        4     2054    792.2    451.4   1573.3   564.00    257.7    792.2      0.0    653.6      0.0    188.4       71    188.8    188.8      100     0.000     0.000     0.000     0.000       80        0        0        0        0        1        0    13.278       99     30.0    3.984     1.06        8        7     2054  1311_RCP85_net_15April_sandyloam.PRM
  Tot(39)       15        4     2055    305.6    444.3   1572.8   571.00    238.6    305.6      0.0    156.7      0.0    183.9       78    196.5    196.5      100     0.000     0.000     0.000     0.000       78        0        0        0        0        1        0    13.021       99     30.0    3.907     1.03        6        7     2055  1311_RCP85_net_15April_sandyloam.PRM
  Tot(40)       15        4     2056   1452.0    355.7   1569.7   577.00    167.4   1452.0      0.0   1294.9      0.0    170.2       79    141.6    141.6      100     0.000     0.000     0.000     0.000       85        0        0        0        0        1        0    13.863       99     30.0    4.159     1.34       13        7     2056  1311_RCP85_net_15April_sandyloam.PRM
  Tot(41)       15        4     2057    817.6    431.8   1560.0   583.00    249.8    817.6      0.0    669.2      0.0    168.8       67    183.0    183.0      100     0.000     0.000     0.000     0.000       78        0        0        0        0        2        0    12.967       99     30.0    3.890     1.11        6        7     2057  1311_RCP85_net_15April_sandyloam.PRM
  Tot(42)       15        4     2058    530.7    416.4   1564.5   590.00    197.1    530.7      0.0    353.2      0.0    171.8       69    168.0    168.0      100     0.000     0.000     0.000     0.000       80        0        0        0        0        1        0    13.552       99     30.0    4.067     1.20        8        7     2058  1311_RCP85_net_15April_sandyloam.PRM
  Tot(43)       15        4     2059    807.9    473.9   1561.5   597.00    257.7    807.9      0.0    656.4      0.0    180.0       67    206.3    206.3      100     0.000     0.000     0.000     0.000       77        0        0        0        0        1        0    12.787       98     30.0    3.838     0.99        6        7     2059  1311_RCP85_net_15April_sandyloam.PRM
  Tot(44)       15        4     2060    821.3    448.8   1569.3   604.00    290.5    821.3      0.0    650.7      0.0    203.8       83    205.6    205.6      100     0.000     0.000     0.000     0.000       79        0        0        0        0        2        0    12.826       98     24.4    3.132     0.77        7        7     2060  1311_RCP85_net_15April_sandyloam.PRM
  Tot(45)       15        4     2061    526.4    446.2   1570.8   611.00    262.9    526.4      0.0    398.3      0.0    174.1       71    198.4    198.4      100     0.000     0.000     0.000     0.000       78        0        0        0        0        1        0    12.897       99     16.0    2.058     0.55        6        7     2061  1311_RCP85_net_15April_sandyloam.PRM
  Tot(46)       15        4     2062    802.6    388.1   1558.4   618.00    180.1    802.6      0.0    583.2      0.0    167.2       89    194.7    194.7      100     0.000     0.000     0.000     0.000       81        0        0        0        0        1        0    13.403       99     30.0    4.022     1.11        9        7     2062  1311_RCP85_net_15April_sandyloam.PRM
  Tot(47)       15        4     2063    999.1    352.5   1564.0   625.00    116.1    999.1      0.0    800.6      0.0    168.6       72    120.5    120.5      100     0.000     0.000     0.000     0.000       83        0        0        0        0        1        0    14.113       98     30.0    4.234     1.47       11        7     2063  1311_RCP85_net_15April_sandyloam.PRM
  Tot(48)       15        4     2064    444.1    465.8   1561.9   632.00    272.7    444.1      0.0    318.7      0.0    191.1       74    201.6    201.6      100     0.000     0.000     0.000     0.000       77        0        0        0        0        2        0    12.539       99     27.6    3.462     0.89        5        7     2064  1311_RCP85_net_15April_sandyloam.PRM
  Tot(49)       15        4     2065   1003.1    371.3   1557.1   639.00    129.9   1003.1      0.0    815.4      0.0    171.3       75    138.3    138.3      100     0.000     0.000     0.000     0.000       83        0        0        0        0        1        0    14.341       99     30.0    4.302     1.39       10        7     2065  1311_RCP85_net_15April_sandyloam.PRM
  Tot(50)       15        4     2066    909.4    453.7   1568.6   647.00    254.6    909.4      0.0    784.2      0.0    167.8       61    185.5    185.5      100     0.000     0.000     0.000     0.000       79        0        0        0        0        1        0    13.206       99     30.0    3.964     1.12        7        7     2066  1311_RCP85_net_15April_sandyloam.PRM
  Tot(51)       15        4     2067    715.1    439.4   1566.9   654.00    219.0    715.1      0.0    581.4      0.0    169.9       65    175.5    175.5      100     0.000     0.000     0.000     0.000       78        0        0        0        0        1        0    13.028       98     30.0    3.909     1.14        6        7     2067  1311_RCP85_net_15April_sandyloam.PRM
  Tot(52)       15        4     2068    907.2    409.2   1572.5   662.00    173.4    907.2      0.0    749.9      0.0    166.2       67    158.1    158.1      100     0.000     0.000     0.000     0.000       79        0        0        0        0        1        0    13.392       99     30.0    4.020     1.25        7        7     2068  1311_RCP85_net_15April_sandyloam.PRM
  Tot(53)       15        4     2069    890.1    370.3   1573.8   669.00    125.9    890.1      0.0    628.5      0.0    168.5       78    149.7    149.7      100     0.000     0.000     0.000     0.000       81        0        0        0        0        1        0    13.764       99     30.0    4.129     1.30        9        7     2069  1311_RCP85_net_15April_sandyloam.PRM
  Tot(54)       15        4     2070    785.1    386.3   1569.4   677.00    138.2    785.1      0.0    598.7      0.0    162.6       70    152.0    152.0      100     0.000     0.000     0.000     0.000       80        0        0        0        0        1        0    13.856       99     30.0    4.157     1.33        8        7     2070  1311_RCP85_net_15April_sandyloam.PRM
  Tot(55)       15        4     2071   1145.4    296.4   1564.2   685.00     71.5   1145.4      0.0    951.2      0.0    151.5       85    116.7    116.7      100     0.000     0.000     0.000     0.000       84        0        0        0        0        0        0    14.529       99     30.0    4.359     1.64       12        7     2071  1311_RCP85_net_15April_sandyloam.PRM
  Tot(56)       15        4     2072    844.6    323.2   1565.6   693.00    105.0    844.6      0.0    672.1      0.0    144.4       71    121.7    121.7      100     0.000     0.000     0.000     0.000       81        0        0        0        0        0        0    13.889       99     30.0    4.167     1.57        9        7     2072  1311_RCP85_net_15April_sandyloam.PRM
  Tot(57)       15        4     2073    355.1    547.7   1570.5   701.00    367.3    355.1      0.0    256.9      0.0    188.0       64    235.3    235.3      100     0.000     0.000     0.000     0.000       72        0        0        0        0        2        0    11.863       98      0.8    0.093     0.02       30        6     2073  1311_RCP85_net_15April_sandyloam.PRM
  Tot(58)       15        4     2074    462.8    450.9   1561.7   709.00    186.4    462.8      0.0    279.1      0.0    180.1       74    189.0    189.0      100     0.000     0.000     0.000     0.000       77        0        0        0        0        1        0    13.091       99     30.0    3.929     1.07        5        7     2074  1311_RCP85_net_15April_sandyloam.PRM
  Tot(59)       15        4     2075    613.4    523.4   1574.6   717.00    285.8    613.4      0.0    478.9      0.0    191.6       66    210.1    210.1      100     0.000     0.000     0.000     0.000       75        0        0        0        0        1        0    12.534       98     30.0    3.763     0.94        3        7     2075  1311_RCP85_net_15April_sandyloam.PRM
  Tot(60)       15        4     2076   1107.7    283.7   1571.1   725.00     50.8   1107.7      0.0    863.1      0.0    153.3       82     94.1     94.1      100     0.000     0.000     0.000     0.000       84        0        0        0        0        0        0    14.574       99     30.0    4.372     1.77       12        7     2076  1311_RCP85_net_15April_sandyloam.PRM
  Tot(61)       15        4     2077    615.0    381.6   1558.0   733.00    108.4    615.0      0.0    405.4      0.0    169.6       80    148.3    148.3      100     0.000     0.000     0.000     0.000       79        0        0        0        0        1        0    13.789       99     30.0    4.139     1.31        7        7     2077  1311_RCP85_net_15April_sandyloam.PRM
  Tot(62)       15        4     2078    887.4    409.0   1558.1   742.00    195.6    887.4      0.0    739.2      0.0    176.9       70    153.4    153.4      100     0.000     0.000     0.000     0.000       76        0        0        0        0        2        0    13.143       98     30.0    3.943     1.20        4        7     2078  1311_RCP85_net_15April_sandyloam.PRM
  Tot(63)       15        4     2079    678.2    413.5   1561.5   750.00    209.6    678.2      0.0    558.4      0.0    168.1       67    161.3    161.3      100     0.000     0.000     0.000     0.000       78        0        0        0        0        2        0    13.322       98     30.0    3.997     1.22        6        7     2079  1311_RCP85_net_15April_sandyloam.PRM
  Tot(64)       15        4     2080   1028.1    425.2   1561.4   758.00    225.4   1028.1      0.0    801.3      0.0    193.5       74    154.4    154.4      100     0.000     0.000     0.000     0.000       77        0        0        0        0        1        0    13.259       98     29.6    3.926     1.13        5        7     2080  1311_RCP85_net_15April_sandyloam.PRM
  Tot(65)       15        4     2081    860.1    388.2   1569.7   767.00    120.3    860.1      0.0    638.9      0.0    183.7       73    132.1    132.1      100     0.000     0.000     0.000     0.000       79        0        0        0        0        1        0    13.624       98     30.0    4.087     1.30        7        7     2081  1311_RCP85_net_15April_sandyloam.PRM
  Tot(66)       15        4     2082   1187.9    284.3   1567.7   775.00     70.0   1187.9      0.0   1005.7      0.0    146.0       82    102.7    102.7      100     0.000     0.000     0.000     0.000       83        0        0        0        0        0        0    14.282       99     30.0    4.285     1.73       11        7     2082  1311_RCP85_net_15April_sandyloam.PRM
  Tot(67)       15        4     2083   1004.1    470.6   1567.3   784.00    233.6   1004.1      0.0    858.8      0.0    167.4       68    207.9    207.9      100     0.000     0.000     0.000     0.000       76        0        0        0        0        1        0    12.817       99     28.1    3.598     0.96        4        7     2083  1311_RCP85_net_15April_sandyloam.PRM
  Tot(68)       15        4     2084   1029.4    422.9   1560.1   792.00    175.0   1029.4      0.0    763.6      0.0    180.7       82    189.4    189.4      100     0.000     0.000     0.000     0.000       76        0        0        0        0        0        0    12.936       99     22.4    2.902     0.79        4        7     2084  1311_RCP85_net_15April_sandyloam.PRM
  Tot(69)       15        4     2085    666.3    364.8   1572.8   801.00    198.1    666.3      0.0    548.8      0.0    162.1       77    143.9    143.9      100     0.000     0.000     0.000     0.000       78        0        0        0        0        1        0    13.334       99     30.0    4.000     1.32        6        7     2085  1311_RCP85_net_15April_sandyloam.PRM
  Tot(70)       15        4     2086    617.7    386.8   1572.3   810.00    187.4    617.7      0.0    476.5      0.0    153.1       72    163.3    163.3      100     0.000     0.000     0.000     0.000       77        0        0        0        0        1        0    13.250       99     30.0    3.978     1.26        5        7     2086  1311_RCP85_net_15April_sandyloam.PRM
  Tot(71)       15        4     2087    487.6    419.7   1561.8   818.00    150.3    487.6      0.0    298.3      0.0    171.3       75    165.0    165.0      100     0.000     0.000     0.000     0.000       76        0        0        0        0        1        0    13.172       99     30.0    3.954     1.18        3        7     2087  1311_RCP85_net_15April_sandyloam.PRM
  Tot(72)       15        4     2088    641.0    396.1   1565.2   827.00    134.7    641.0      0.0    391.6      0.0    162.8       71    150.0    150.0      100     0.000     0.000     0.000     0.000       77        0        0        0        0        1        0    13.323       99     30.0    3.997     1.28        5        7     2088  1311_RCP85_net_15April_sandyloam.PRM
  Tot(73)       15        4     2089    991.5    419.3   1561.2   836.00    225.9    991.5      0.0    866.3      0.0    181.7       68    147.8    147.8      100     0.000     0.000     0.000     0.000       76        0        0        0        0        2        0    13.063       98     30.0    3.920     1.19        4        7     2089  1311_RCP85_net_15April_sandyloam.PRM
  Tot(74)       15        4     2090    407.3    432.3   1560.3   845.00    262.2    407.3      0.0    278.0      0.0    186.5       73    163.6    163.6      100     0.000     0.000     0.000     0.000       74        0        0        0        0        2        0    12.552       98     30.0    3.767     1.08        2        7     2090  1311_RCP85_net_15April_sandyloam.PRM
  Tot(75)       15        4     2091    720.4    431.5   1559.9   854.00    265.4    720.4      0.0    584.8      0.0    176.0       86    205.1    205.1      100     0.000     0.000     0.000     0.000       74        0        0        0        0        1        0    12.099       99     16.7    2.017     0.53        2        7     2091  1311_RCP85_net_15April_sandyloam.PRM
  Tot(76)       15        4     2092   1109.1    369.9   1557.8   863.00    124.1   1109.1      0.0    800.4      0.0    186.2       89    151.3    151.3      100     0.000     0.000     0.000     0.000       78        0        0        0        0        1        0    13.351       99     30.0    4.005     1.19        6        7     2092  1311_RCP85_net_15April_sandyloam.PRM
  Tot(77)       15        4     2093    659.8    374.6   1574.2   872.00    167.2    659.8      0.0    517.9      0.0    180.4       76    128.2    128.2      100     0.000     0.000     0.000     0.000       77        0        0        0        0        1        0    12.991       99     30.0    3.897     1.27        5        7     2093  1311_RCP85_net_15April_sandyloam.PRM
  Tot(78)       15        4     2094    955.6    346.7   1564.6   881.00    123.2    955.6      0.0    731.0      0.0    176.3       82    124.1    124.1      100     0.000     0.000     0.000     0.000       78        0        0        0        0        0        0    13.364       99     30.0    4.010     1.34        6        7     2094  1311_RCP85_net_15April_sandyloam.PRM
  Tot(79)       15        4     2095    937.4    313.2   1572.3   890.00    103.3    937.4      0.0    758.4      0.0    149.0       83    120.7    120.7      100     0.000     0.000     0.000     0.000       79        0        0        0        0        0        0    13.544       99     30.0    4.064     1.51        7        7     2095  1311_RCP85_net_15April_sandyloam.PRM
  Tot(80)       15        4     2096   1058.3    418.3   1560.8   899.00    193.0   1058.3      0.0    844.3      0.0    190.4       80    166.4    166.4      100     0.000     0.000     0.000     0.000       77        0        0        0        0        1        0    13.009       99     30.0    3.905     1.10        5        7     2096  1311_RCP85_net_15April_sandyloam.PRM
  Tot(81)       15        4     2097   1134.0    360.4   1567.0   908.00    154.2   1134.0      0.0    977.6      0.0    176.1       77    119.6    119.6      100     0.000     0.000     0.000     0.000       77        0        0        0        0        1        0    13.367       99     30.0    4.010     1.36        5        7     2097  1311_RCP85_net_15April_sandyloam.PRM
  Tot(82)       15        4     2098    817.8    344.5   1563.3   917.00    106.4    817.8      0.0    624.4      0.0    152.6       72    124.0    124.0      100     0.000     0.000     0.000     0.000       77        0        0        0        0        1        0    13.369       99     30.0    4.011     1.45        5        7     2098  1311_RCP85_net_15April_sandyloam.PRM
  Tot(83)       15        4     2099   1722.0    326.6   1566.2   927.00     87.9   1722.0      0.0   1512.4      0.0    156.7       73    104.8    104.8      100     0.000     0.000     0.000     0.000       78        0        0        0        0        1        0    13.708       99     30.0    4.112     1.58        6        7     2099  1311_RCP85_net_15April_sandyloam.PRM
