AquaCrop 6.0 (March 2017) - Output created on (date) : 28/06/2021   at (time) : 14:28:58

    RunNr     Day1   Month1    Year1     Rain      ETo       GD     CO2      Irri   Infilt   Runoff    Drain   Upflow        E     E/Ex       Tr      TrW   Tr/Trx    SaltIn   SaltOut    SaltUp  SaltProf     Cycle   SaltStr  FertStr  WeedStr  TempStr   ExpStr   StoStr  BioMass  Brelative   HI     Yield     WPet     DayN   MonthN    YearN
                                           mm       mm    °C.day    ppm        mm       mm       mm       mm       mm       mm        %       mm       mm        %    ton/ha    ton/ha    ton/ha    ton/ha      days       %        %        %        %        %        %    ton/ha        %       %    ton/ha    kg/m3
   Tot(1)       15        4     2017   1047.0    391.6   1570.8   407.00    123.3   1047.0      0.0    822.7      0.0    146.9       62    161.1    161.1      100     0.000     0.000     0.000     0.000       87        0        0        0        0        0        0    14.155       99     30.0    4.247     1.39       15        7     2017  1311_RCP85_net_15April_sandy.PRM
   Tot(2)       15        4     2018   1051.4    422.6   1562.3   410.00    233.6   1051.4      0.0    949.2      0.0    148.0       57    180.8    180.8      100     0.000     0.000     0.000     0.000       86        0        0        0        1        2        0    13.814       99     30.0    4.144     1.26       15        7     2018  1311_RCP85_net_15April_sandy.PRM
   Tot(3)       15        4     2019    170.5    552.1   1573.3   413.00    332.3    170.5      0.0     57.5      0.0    198.4       69    249.2    249.2      100     0.000     0.000     0.000     0.000       78        0        0        0        0        1        0    12.555       99     30.0    3.768     0.85        7        7     2019  1311_RCP85_net_15April_sandy.PRM
   Tot(4)       15        4     2020    618.5    443.0   1565.1   416.00    249.5    618.5      0.0    484.1      0.0    161.8       66    206.7    206.7      100     0.000     0.000     0.000     0.000       82        0        0        0        0        1        0    13.058       99     30.0    3.918     1.07       10        7     2020  1311_RCP85_net_15April_sandy.PRM
   Tot(5)       15        4     2021    779.9    462.4   1562.3   419.00    250.4    779.9      0.0    629.0      0.0    164.4       61    204.4    204.4      100     0.000     0.000     0.000     0.000       85        0        0        0        0        2        0    13.640       99     30.0    4.093     1.11       13        7     2021  1311_RCP85_net_15April_sandy.PRM
   Tot(6)       15        4     2022    114.6    626.0   1569.7   422.00    451.0    114.6      0.0     31.0      0.0    200.1       64    285.2    285.2      100     0.000     0.000     0.000     0.000       76        0        0        0        0        3        0    12.129       98     30.0    3.643     0.75        4        7     2022  1311_RCP85_net_15April_sandy.PRM
   Tot(7)       15        4     2023    747.1    427.2   1559.6   425.00    206.1    747.1      0.0    618.8      0.0    149.9       56    171.6    171.6      100     0.000     0.000     0.000     0.000       86        0        0        0        1        1        0    13.777       98     30.0    4.134     1.29       15        7     2023  1311_RCP85_net_15April_sandy.PRM
   Tot(8)       15        4     2024    795.7    423.6   1562.4   428.00    184.9    795.7      0.0    644.5      0.0    146.8       55    167.3    167.3      100     0.000     0.000     0.000     0.000       84        0        0        0        0        1        0    13.747       98     30.0    4.124     1.32       12        7     2024  1311_RCP85_net_15April_sandy.PRM
   Tot(9)       15        4     2025    491.8    446.2   1568.0   431.00    241.5    491.8      0.0    339.7      0.0    157.9       64    208.5    208.5      100     0.000     0.000     0.000     0.000       83        0        0        0        0        1        0    13.210       99     30.0    3.965     1.09       11        7     2025  1311_RCP85_net_15April_sandy.PRM
  Tot(10)       15        4     2026    113.1    553.9   1557.3   435.00    371.3    113.1      0.0     24.9      0.0    182.9       72    268.3    268.3      100     0.000     0.000     0.000     0.000       77        0        0        0        0        1        0    12.299       99     21.5    2.643     0.59        5        7     2026  1311_RCP85_net_15April_sandy.PRM
  Tot(11)       15        4     2027    369.0    521.3   1569.0   438.00    269.5    369.0      0.0    135.5      0.0    155.3       53    230.3    230.3      100     0.000     0.000     0.000     0.000       82        0        0        0        0        2        0    13.116       98     30.0    3.935     1.02       10        7     2027  1311_RCP85_net_15April_sandy.PRM
  Tot(12)       15        4     2028    499.3    476.1   1561.2   442.00    280.5    499.3      0.0    344.5      0.0    169.1       68    227.2    227.2      100     0.000     0.000     0.000     0.000       79        0        0        0        0        2        0    12.631       99     30.0    3.792     0.96        7        7     2028  1311_RCP85_net_15April_sandy.PRM
  Tot(13)       15        4     2029    462.9    456.6   1571.5   445.00    215.1    462.9      0.0    282.7      0.0    164.8       68    200.1    200.1      100     0.000     0.000     0.000     0.000       80        0        0        0        0        1        0    13.022       99     30.0    3.907     1.07        8        7     2029  1311_RCP85_net_15April_sandy.PRM
  Tot(14)       15        4     2030    441.9    480.3   1558.0   449.00    248.9    441.9      0.0    284.9      0.0    163.7       64    226.6    226.6      100     0.000     0.000     0.000     0.000       80        0        0        0        0        1        0    12.932       99     30.0    3.881     1.00        8        7     2030  1311_RCP85_net_15April_sandy.PRM
  Tot(15)       15        4     2031    803.9    491.1   1570.3   452.00    265.4    803.9      0.0    634.2      0.0    156.1       57    227.4    227.4      100     0.000     0.000     0.000     0.000       81        0        0        0        0        1        0    12.865       99     27.7    3.558     0.93       10        7     2031  1311_RCP85_net_15April_sandy.PRM
  Tot(16)       15        4     2032    589.0    475.7   1562.0   456.00    275.9    589.0      0.0    472.5      0.0    164.2       62    222.5    222.5      100     0.000     0.000     0.000     0.000       81        0        0        0        0        2        0    13.042       98     30.0    3.913     1.01        9        7     2032  1311_RCP85_net_15April_sandy.PRM
  Tot(17)       15        4     2033    625.8    506.5   1560.5   460.00    297.5    625.8      0.0    510.4      0.0    161.7       57    230.5    230.5      100     0.000     0.000     0.000     0.000       80        0        0        0        0        2        0    12.858       98     30.0    3.858     0.98        8        7     2033  1311_RCP85_net_15April_sandy.PRM
  Tot(18)       15        4     2034    970.8    423.0   1559.5   464.00    173.3    970.8      0.0    768.3      0.0    154.3       60    170.3    170.3      100     0.000     0.000     0.000     0.000       83        0        0        0        0        1        0    13.700       98     30.0    4.114     1.27       11        7     2034  1311_RCP85_net_15April_sandy.PRM
  Tot(19)       15        4     2035    558.0    425.3   1564.3   468.00    191.1    558.0      0.0    300.0      0.0    165.9       70    183.8    183.8      100     0.000     0.000     0.000     0.000       83        0        0        0        0        1        0    13.665       99     30.0    4.100     1.17       11        7     2035  1311_RCP85_net_15April_sandy.PRM
  Tot(20)       15        4     2036    550.4    393.6   1557.0   472.00    145.9    550.4      0.0    384.1      0.0    155.5       67    157.2    157.2      100     0.000     0.000     0.000     0.000       84        0        0        0        0        1        0    13.919       99     30.0    4.177     1.34       11        7     2036  1311_RCP85_net_15April_sandy.PRM
  Tot(21)       15        4     2037   1031.0    395.4   1569.7   476.00    188.7   1031.0      0.0    882.2      0.0    179.8       71    147.4    147.4      100     0.000     0.000     0.000     0.000       86        0        0        0        0        1        0    14.304       98     30.0    4.291     1.32       14        7     2037  1311_RCP85_net_15April_sandy.PRM
  Tot(22)       15        4     2038    904.8    387.7   1559.0   481.00    176.0    904.8      0.0    710.6      0.0    165.6       68    152.4    152.4      100     0.000     0.000     0.000     0.000       85        0        0        0        0        1        0    14.277       99     30.0    4.283     1.35       13        7     2038  1311_RCP85_net_15April_sandy.PRM
  Tot(23)       15        4     2039    680.7    497.6   1565.6   485.00    277.1    680.7      0.0    522.6      0.0    171.5       65    228.9    228.9      100     0.000     0.000     0.000     0.000       80        0        0        0        0        1        0    13.027       99     30.0    3.909     0.98        8        7     2039  1311_RCP85_net_15April_sandy.PRM
  Tot(24)       15        4     2040    936.9    448.8   1558.4   489.00    213.9    936.9      0.0    805.0      0.0    163.6       59    181.1    181.1      100     0.000     0.000     0.000     0.000       84        0        0        0        1        2        0    13.975       98     30.0    4.192     1.22       12        7     2040  1311_RCP85_net_15April_sandy.PRM
  Tot(25)       15        4     2041    707.7    466.5   1557.7   494.00    269.7    707.7      0.0    552.9      0.0    171.3       67    211.9    211.9      100     0.000     0.000     0.000     0.000       80        0        0        0        0        1        0    13.371       99     30.0    4.013     1.05        8        7     2041  1311_RCP85_net_15April_sandy.PRM
  Tot(26)       15        4     2042    404.6    445.5   1571.0   499.00    218.5    404.6      0.0    255.9      0.0    153.4       64    207.7    207.7      100     0.000     0.000     0.000     0.000       82        0        0        0        0        1        0    13.544       99     30.0    4.066     1.13       10        7     2042  1311_RCP85_net_15April_sandy.PRM
  Tot(27)       15        4     2043    892.2    387.9   1567.7   504.00    159.9    892.2      0.0    738.3      0.0    148.7       61    152.3    152.3      100     0.000     0.000     0.000     0.000       85        0        0        0        0        1        0    14.362       99     30.0    4.309     1.44       13        7     2043  1311_RCP85_net_15April_sandy.PRM
  Tot(28)       15        4     2044    806.4    401.7   1565.7   508.00    207.4    806.4      0.0    626.2      0.0    149.9       64    176.1    176.1      100     0.000     0.000     0.000     0.000       83        0        0        0        0        1        0    13.775       99     30.0    4.134     1.27       11        7     2044  1311_RCP85_net_15April_sandy.PRM
  Tot(29)       15        4     2045    631.8    422.3   1566.3   513.00    201.7    631.8      0.0    477.8      0.0    158.3       63    167.1    167.1      100     0.000     0.000     0.000     0.000       83        0        0        0        0        1        0    14.002       98     30.0    4.200     1.30       11        7     2045  1311_RCP85_net_15April_sandy.PRM
  Tot(30)       15        4     2046    427.2    562.7   1570.3   519.00    382.3    427.2      0.0    306.8      0.0    166.0       57    263.2    263.2      100     0.000     0.000     0.000     0.000       74        0        0        0        0        2        0    12.009       98      6.7    0.802     0.19        2        7     2046  1311_RCP85_net_15April_sandy.PRM
  Tot(31)       15        4     2047    606.7    471.7   1570.2   524.00    272.1    606.7      0.0    479.6      0.0    167.3       66    219.4    219.4      100     0.000     0.000     0.000     0.000       80        0        0        0        0        2        0    13.043       99     30.0    3.915     1.01        8        7     2047  1311_RCP85_net_15April_sandy.PRM
  Tot(32)       15        4     2048    942.9    399.3   1566.7   529.00    132.9    942.9      0.0    784.0      0.0    126.0       51    155.4    155.4      100     0.000     0.000     0.000     0.000       83        0        0        0        0        1        0    13.860       99     30.0    4.158     1.49       11        7     2048  1311_RCP85_net_15April_sandy.PRM
  Tot(33)       15        4     2049    800.3    418.8   1568.8   535.00    165.3    800.3      0.0    596.4      0.0    158.9       65    177.3    177.3      100     0.000     0.000     0.000     0.000       84        0        0        0        0        1        0    13.992       99     30.0    4.199     1.26       12        7     2049  1311_RCP85_net_15April_sandy.PRM
  Tot(34)       15        4     2050    615.1    399.5   1573.0   541.00    160.1    615.1      0.0    421.4      0.0    163.3       77    170.7    170.7      100     0.000     0.000     0.000     0.000       84        0        0        0        0        1        0    14.133       99     30.0    4.240     1.27       13        7     2050  1311_RCP85_net_15April_sandy.PRM
  Tot(35)       15        4     2051    485.7    448.8   1557.8   546.00    304.1    485.7      0.0    364.2      0.0    161.5       75    233.6    233.6      100     0.000     0.000     0.000     0.000       79        0        0        0        0        1        0    12.505       99     10.2    1.282     0.32        7        7     2051  1311_RCP85_net_15April_sandy.PRM
  Tot(36)       15        4     2052    720.2    502.4   1558.7   552.00    307.1    720.2      0.0    579.2      0.0    179.3       71    237.0    237.0      100     0.000     0.000     0.000     0.000       77        0        0        0        0        1        0    12.565       99     20.5    2.576     0.62        5        7     2052  1311_RCP85_net_15April_sandy.PRM
  Tot(37)       15        4     2053    609.8    443.0   1571.9   558.00    178.9    609.8      0.0    419.0      0.0    154.1       61    193.3    193.3      100     0.000     0.000     0.000     0.000       82        0        0        0        0        1        0    13.644       99     30.0    4.095     1.18       10        7     2053  1311_RCP85_net_15April_sandy.PRM
  Tot(38)       15        4     2054    792.2    451.4   1573.3   564.00    241.2    792.2      0.0    659.7      0.0    164.5       62    188.9    188.9      100     0.000     0.000     0.000     0.000       80        0        0        0        0        1        0    13.284       99     30.0    3.986     1.13        8        7     2054  1311_RCP85_net_15April_sandy.PRM
  Tot(39)       15        4     2055    305.6    444.3   1572.8   571.00    230.9    305.6      0.0    168.7      0.0    163.5       69    196.6    196.6      100     0.000     0.000     0.000     0.000       78        0        0        0        0        1        0    13.025       99     30.0    3.908     1.09        6        7     2055  1311_RCP85_net_15April_sandy.PRM
  Tot(40)       15        4     2056   1452.0    355.7   1569.7   577.00    159.0   1452.0      0.0   1306.9      0.0    149.3       69    141.6    141.6      100     0.000     0.000     0.000     0.000       85        0        0        0        0        1        0    13.869       99     30.0    4.161     1.44       13        7     2056  1311_RCP85_net_15April_sandy.PRM
  Tot(41)       15        4     2057    817.6    431.8   1560.0   583.00    236.2    817.6      0.0    673.5      0.0    149.0       59    183.2    183.2      100     0.000     0.000     0.000     0.000       78        0        0        0        0        1        0    12.978       99     30.0    3.894     1.17        6        7     2057  1311_RCP85_net_15April_sandy.PRM
  Tot(42)       15        4     2058    530.7    416.4   1564.5   590.00    186.6    530.7      0.0    363.8      0.0    149.5       60    168.1    168.1      100     0.000     0.000     0.000     0.000       80        0        0        0        0        1        0    13.556       99     30.0    4.068     1.29        8        7     2058  1311_RCP85_net_15April_sandy.PRM
  Tot(43)       15        4     2059    807.9    473.9   1561.5   597.00    243.2    807.9      0.0    665.1      0.0    155.6       58    206.4    206.4      100     0.000     0.000     0.000     0.000       77        0        0        0        0        1       -0    12.797       98     30.0    3.841     1.06        6        7     2059  1311_RCP85_net_15April_sandy.PRM
  Tot(44)       15        4     2060    821.3    448.8   1569.3   604.00    283.8    821.3      0.0    659.4      0.0    186.6       76    205.5    205.5      100     0.000     0.000     0.000     0.000       79        0        0        0        0        2        0    12.824       98     24.4    3.132     0.80        7        7     2060  1311_RCP85_net_15April_sandy.PRM
  Tot(45)       15        4     2061    526.4    446.2   1570.8   611.00    253.6    526.4      0.0    405.4      0.0    156.1       64    198.5    198.5      100     0.000     0.000     0.000     0.000       78        0        0        0        0        1        0    12.904       99     16.0    2.059     0.58        6        7     2061  1311_RCP85_net_15April_sandy.PRM
  Tot(46)       15        4     2062    802.6    388.1   1558.4   618.00    179.6    802.6      0.0    598.3      0.0    150.7       80    194.7    194.7      100     0.000     0.000     0.000     0.000       81        0        0        0        0        1        0    13.404       99     30.0    4.022     1.17        9        7     2062  1311_RCP85_net_15April_sandy.PRM
  Tot(47)       15        4     2063    999.1    352.5   1564.0   625.00     97.7    999.1      0.0    805.4      0.0    145.1       62    120.5    120.5      100     0.000     0.000     0.000     0.000       83        0        0        0        0        1        0    14.116       98     30.0    4.235     1.60       11        7     2063  1311_RCP85_net_15April_sandy.PRM
  Tot(48)       15        4     2064    444.1    465.8   1561.9   632.00    263.7    444.1      0.0    330.9      0.0    168.5       66    201.7    201.7      100     0.000     0.000     0.000     0.000       77        0        0        0        0        2        0    12.545       99     27.6    3.464     0.94        5        7     2064  1311_RCP85_net_15April_sandy.PRM
  Tot(49)       15        4     2065   1003.1    371.3   1557.1   639.00    122.7   1003.1      0.0    826.3      0.0    152.9       67    138.5    138.5      100     0.000     0.000     0.000     0.000       83        0        0        0        0        0        0    14.354       99     30.0    4.306     1.48       10        7     2065  1311_RCP85_net_15April_sandy.PRM
  Tot(50)       15        4     2066    909.4    453.7   1568.6   647.00    245.7    909.4      0.0    791.8      0.0    150.0       55    185.6    185.6      100     0.000     0.000     0.000     0.000       79        0        0        0        0        1        0    13.214       99     30.0    3.967     1.18        7        7     2066  1311_RCP85_net_15April_sandy.PRM
  Tot(51)       15        4     2067    715.1    439.4   1566.9   654.00    212.0    715.1      0.0    593.3      0.0    150.1       57    175.5    175.5      100     0.000     0.000     0.000     0.000       78        0        0        0        0        1        0    13.032       98     30.0    3.910     1.21        6        7     2067  1311_RCP85_net_15April_sandy.PRM
  Tot(52)       15        4     2068    907.2    409.2   1572.5   662.00    167.2    907.2      0.0    759.5      0.0    149.1       60    158.1    158.1      100     0.000     0.000     0.000     0.000       79        0        0        0        0        1        0    13.394       99     30.0    4.020     1.32        7        7     2068  1311_RCP85_net_15April_sandy.PRM
  Tot(53)       15        4     2069    890.1    370.3   1573.8   669.00    122.8    890.1      0.0    641.8      0.0    151.1       70    149.7    149.7      100     0.000     0.000     0.000     0.000       81        0        0        0        0        1        0    13.767       99     30.0    4.131     1.38        9        7     2069  1311_RCP85_net_15April_sandy.PRM
  Tot(54)       15        4     2070    785.1    386.3   1569.4   677.00    137.5    785.1      0.0    610.6      0.0    148.6       64    152.1    152.1      100     0.000     0.000     0.000     0.000       80        0        0        0        0        1        0    13.859       99     30.0    4.158     1.39        8        7     2070  1311_RCP85_net_15April_sandy.PRM
  Tot(55)       15        4     2071   1145.4    296.4   1564.2   685.00     78.7   1145.4      0.0    971.8      0.0    137.9       77    116.6    116.6      100     0.000     0.000     0.000     0.000       84        0        0        0        0        0        0    14.527       99     30.0    4.358     1.72       12        7     2071  1311_RCP85_net_15April_sandy.PRM
  Tot(56)       15        4     2072    844.6    323.2   1565.6   693.00    101.5    844.6      0.0    682.2      0.0    130.5       64    121.7    121.7      100     0.000     0.000     0.000     0.000       81        0        0        0        0        0        0    13.889       99     30.0    4.167     1.65        9        7     2072  1311_RCP85_net_15April_sandy.PRM
  Tot(57)       15        4     2073    355.1    547.7   1570.5   701.00    346.7    355.1      0.0    262.2      0.0    160.6       55    235.4    235.4      100     0.000     0.000     0.000     0.000       72        0        0        0        0        2        0    11.868       98      0.8    0.093     0.02       30        6     2073  1311_RCP85_net_15April_sandy.PRM
  Tot(58)       15        4     2074    462.8    450.9   1561.7   709.00    176.9    462.8      0.0    290.7      0.0    159.0       65    189.1    189.1      100     0.000     0.000     0.000     0.000       77        0        0        0        0        1        0    13.096       99     30.0    3.930     1.13        5        7     2074  1311_RCP85_net_15April_sandy.PRM
  Tot(59)       15        4     2075    613.4    523.4   1574.6   717.00    269.3    613.4      0.0    484.7      0.0    167.8       58    210.2    210.2      100     0.000     0.000     0.000     0.000       75        0        0        0        0        1        0    12.540       99     30.0    3.765     1.00        3        7     2075  1311_RCP85_net_15April_sandy.PRM
  Tot(60)       15        4     2076   1107.7    283.7   1571.1   725.00     45.3   1107.7      0.0    871.0      0.0    138.4       74     94.1     94.1      100     0.000     0.000     0.000     0.000       84        0        0        0        0        0        0    14.578       99     30.0    4.373     1.88       12        7     2076  1311_RCP85_net_15April_sandy.PRM
  Tot(61)       15        4     2077    615.0    381.6   1558.0   733.00    113.1    615.0      0.0    424.6      0.0    154.9       73    148.3    148.3      100     0.000     0.000     0.000     0.000       79        0        0        0        0        1        0    13.793       99     30.0    4.140     1.38        7        7     2077  1311_RCP85_net_15April_sandy.PRM
  Tot(62)       15        4     2078    887.4    409.0   1558.1   742.00    181.2    887.4      0.0    749.2      0.0    151.8       60    153.5    153.5      100     0.000     0.000     0.000     0.000       76        0        0        0        0        2        0    13.152       98     30.0    3.945     1.30        4        7     2078  1311_RCP85_net_15April_sandy.PRM
  Tot(63)       15        4     2079    678.2    413.5   1561.5   750.00    197.6    678.2      0.0    565.7      0.0    148.6       59    161.4    161.4      100     0.000     0.000     0.000     0.000       78        0        0        0        0        2        0    13.327       99     30.0    3.998     1.30        6        7     2079  1311_RCP85_net_15April_sandy.PRM
  Tot(64)       15        4     2080   1028.1    425.2   1561.4   758.00    204.4   1028.1      0.0    810.9      0.0    161.2       62    154.5    154.5      100     0.000     0.000     0.000     0.000       77        0        0        0        0        1       -0    13.264       98     29.6    3.928     1.25        5        7     2080  1311_RCP85_net_15April_sandy.PRM
  Tot(65)       15        4     2081    860.1    388.2   1569.7   767.00    113.6    860.1      0.0    653.9      0.0    160.6       63    132.1    132.1      100     0.000     0.000     0.000     0.000       79        0        0        0        0        1        0    13.627       99     30.0    4.088     1.40        7        7     2081  1311_RCP85_net_15April_sandy.PRM
  Tot(66)       15        4     2082   1187.9    284.3   1567.7   775.00     77.2   1187.9      0.0   1027.1      0.0    131.2       74    102.8    102.8      100     0.000     0.000     0.000     0.000       83        0        0        0        0        0        0    14.287       99     30.0    4.286     1.83       11        7     2082  1311_RCP85_net_15April_sandy.PRM
  Tot(67)       15        4     2083   1004.1    470.6   1567.3   784.00    231.5   1004.1      0.0    872.4      0.0    150.8       61    207.9    207.9      100     0.000     0.000     0.000     0.000       76        0        0        0        0        1        0    12.817       99     28.1    3.598     1.01        4        7     2083  1311_RCP85_net_15April_sandy.PRM
  Tot(68)       15        4     2084   1029.4    422.9   1560.1   792.00    177.7   1029.4      0.0    780.1      0.0    165.6       75    189.5    189.5      100     0.000     0.000     0.000     0.000       76        0        0        0        0        0        0    12.937       99     22.4    2.902     0.82        4        7     2084  1311_RCP85_net_15April_sandy.PRM
  Tot(69)       15        4     2085    666.3    364.8   1572.8   801.00    183.6    666.3      0.0    553.8      0.0    141.5       68    144.1    144.1      100     0.000     0.000     0.000     0.000       78        0        0        0        0        1        0    13.346       99     30.0    4.004     1.41        6        7     2085  1311_RCP85_net_15April_sandy.PRM
  Tot(70)       15        4     2086    617.7    386.8   1572.3   810.00    183.2    617.7      0.0    490.3      0.0    134.8       63    163.3    163.3      100     0.000     0.000     0.000     0.000       77        0        0        0        0        1        0    13.251       99     30.0    3.978     1.34        5        7     2086  1311_RCP85_net_15April_sandy.PRM
  Tot(71)       15        4     2087    487.6    419.7   1561.8   818.00    157.6    487.6      0.0    320.3      0.0    156.2       68    165.1    165.1      100     0.000     0.000     0.000     0.000       76        0        0        0        0        1        0    13.176       99     30.0    3.955     1.24        3        7     2087  1311_RCP85_net_15April_sandy.PRM
  Tot(72)       15        4     2088    641.0    396.1   1565.2   827.00    132.5    641.0      0.0    405.3      0.0    146.2       63    150.2    150.2      100     0.000     0.000     0.000     0.000       77        0        0        0        0        1        0    13.332       99     30.0    4.000     1.35        5        7     2088  1311_RCP85_net_15April_sandy.PRM
  Tot(73)       15        4     2089    991.5    419.3   1561.2   836.00    208.7    991.5      0.0    875.9      0.0    153.4       58    147.8    147.8      100     0.000     0.000     0.000     0.000       76        0        0        0        0        2        0    13.065       98     30.0    3.921     1.31        4        7     2089  1311_RCP85_net_15April_sandy.PRM
  Tot(74)       15        4     2090    407.3    432.3   1560.3   845.00    243.0    407.3      0.0    283.9      0.0    160.7       63    163.8    163.8      100     0.000     0.000     0.000     0.000       74        0        0        0        0        2        0    12.560       98     30.0    3.769     1.16        2        7     2090  1311_RCP85_net_15April_sandy.PRM
  Tot(75)       15        4     2091    720.4    431.5   1559.9   854.00    262.1    720.4      0.0    594.3      0.0    162.2       80    205.2    205.2      100     0.000     0.000     0.000     0.000       74        0        0        0        0        1        0    12.103       99     16.7    2.018     0.55        2        7     2091  1311_RCP85_net_15April_sandy.PRM
  Tot(76)       15        4     2092   1109.1    369.9   1557.8   863.00    132.9   1109.1      0.0    824.9      0.0    169.1       81    151.4    151.4      100     0.000     0.000     0.000     0.000       78        0        0        0        0        1        0    13.353       99     30.0    4.006     1.25        6        7     2092  1311_RCP85_net_15April_sandy.PRM
  Tot(77)       15        4     2093    659.8    374.6   1574.2   872.00    153.6    659.8      0.0    525.9      0.0    158.2       67    128.3    128.3      100     0.000     0.000     0.000     0.000       77        0        0        0        0        1        0    12.994       99     30.0    3.898     1.37        5        7     2093  1311_RCP85_net_15April_sandy.PRM
  Tot(78)       15        4     2094    955.6    346.7   1564.6   881.00    120.1    955.6      0.0    742.0      0.0    160.5       75    124.2    124.2      100     0.000     0.000     0.000     0.000       78        0        0        0        0        0        0    13.373       99     30.0    4.013     1.41        6        7     2094  1311_RCP85_net_15April_sandy.PRM
  Tot(79)       15        4     2095    937.4    313.2   1572.3   890.00    106.4    937.4      0.0    773.1      0.0    135.7       76    120.7    120.7      100     0.000     0.000     0.000     0.000       79        0        0        0        0        0        0    13.547       99     30.0    4.064     1.59        7        7     2095  1311_RCP85_net_15April_sandy.PRM
  Tot(80)       15        4     2096   1058.3    418.3   1560.8   899.00    186.6   1058.3      0.0    854.0      0.0    172.9       73    166.5    166.5      100     0.000     0.000     0.000     0.000       77        0        0        0        0        1        0    13.019       99     30.0    3.907     1.15        5        7     2096  1311_RCP85_net_15April_sandy.PRM
  Tot(81)       15        4     2097   1134.0    360.4   1567.0   908.00    139.4   1134.0      0.0    988.1      0.0    149.7       65    119.7    119.7      100     0.000     0.000     0.000     0.000       77        0        0        0        0        1        0    13.372       99     30.0    4.012     1.49        5        7     2097  1311_RCP85_net_15April_sandy.PRM
  Tot(82)       15        4     2098    817.8    344.5   1563.3   917.00    111.0    817.8      0.0    641.9      0.0    138.9       65    124.1    124.1      100     0.000     0.000     0.000     0.000       77        0        0        0        0        1        0    13.377       99     30.0    4.013     1.53        5        7     2098  1311_RCP85_net_15April_sandy.PRM
  Tot(83)       15        4     2099   1722.0    326.6   1566.2   927.00     69.5   1722.0      0.0   1520.6      0.0    128.3       60    105.1    105.1      100     0.000     0.000     0.000     0.000       78        0        0        0        0        1        0    13.724       99     30.0    4.117     1.77        6        7     2099  1311_RCP85_net_15April_sandy.PRM
