AquaCrop 7.0 (August 2022) - Output created on (date) : 13-10-2022   at (time) : 17:07:55

   Run:   1
   Day Month  Year   DAP Stage   WC(2.00)   Rain     Irri   Surf   Infilt   RO    Drain       CR    Zgwt       Ex       E     E/Ex     Trx       Tr  Tr/Trx    ETx      ET  ET/ETx      GD       Z     StExp  StSto  StSen StSalt StWeed   CC      CCw     StTr  Kc(Tr)     Trx       Tr      TrW  Tr/Trx   WP    Biomass     HI    Y(dry)  Y(fresh)  Brelative    WPet      Bin     Bout  WC(2.00) Wr(2.00)     Z       Wr    Wr(SAT)    Wr(FC)   Wr(exp)   Wr(sto)   Wr(sen)   Wr(PWP)    SaltIn    SaltOut   SaltUp   Salt(2.00)  SaltZ     Z       ECe    ECsw   StSalt  Zgwt    ECgw       WC01       WC 2       WC 3       WC 4       WC 5       WC 6       WC 7       WC 8       WC 9       WC10       WC11       WC12      ECe01      ECe 2      ECe 3      ECe 4      ECe 5      ECe 6      ECe 7      ECe 8      ECe 9      ECe10      ECe11      ECe12     Rain       ETo      Tmin      Tavg      Tmax      CO2
                                      mm      mm       mm     mm     mm     mm       mm       mm      m        mm       mm     %        mm       mm    %        mm      mm       %  degC-day     m       %      %      %      %      %      %       %       %       -        mm       mm       mm    %     g/m2    ton/ha      %    ton/ha   ton/ha       %       kg/m3   ton/ha   ton/ha      mm       mm       m       mm        mm        mm        mm        mm        mm         mm    ton/ha    ton/ha    ton/ha    ton/ha    ton/ha     m      dS/m    dS/m      %     m      dS/m       0.05       0.15       0.28       0.43       0.58       0.73       0.88       1.05       1.25       1.45       1.65       1.88       0.05       0.15       0.28       0.43       0.58       0.73       0.88       1.05       1.25       1.45       1.65       1.88       mm        mm     degC      degC      degC       ppm
    20     4  2007     1     1     777.0     1.0      0.0    0.0    1.0    0.0      0.0      0.0   -9.90      4.5      4.0     89      0.0      0.0   100      4.5     4.0      89      0.0    0.30     -9     -9     -9      0     -9     0.0     0.0      0    -9.00      0.0      0.0      0.0   100     0.0     0.000    -9.9    0.000   -9.900      -9        0.00    0.000    0.000     777.0    777.0    0.30   114.0     150.0     117.0     110.3      82.9      83.9      69.0    0.000     0.000     0.000     0.000     0.000    0.30     0.00    0.00      0   -9.90   -9.00       36.0       39.0       39.0       39.0       39.0       39.0       39.0       39.0       39.0       39.0       39.0       39.0        0.0        0.0        0.0        0.0        0.0        0.0        0.0        0.0        0.0        0.0        0.0        0.0      1.0       4.1       0.1       8.2      16.3    383.77
    21     4  2007     2     1     774.0     0.0      0.0    0.0    0.0    0.0      0.0      0.0   -9.90      4.6      3.0     64      0.0      0.0   100      4.6     3.0      64      0.0    0.30     -9     -9     -9      0     -9     0.0     0.0      0    -9.00      0.0      0.0      0.0   100     0.0     0.000    -9.9    0.000   -9.900      -9        0.00    0.000    0.000     774.0    774.0    0.30   111.0     150.0     117.0     110.3      83.0      83.9      69.0    0.000     0.000     0.000     0.000     0.000    0.30     0.00    0.00      0   -9.90   -9.00       33.0       39.0       39.0       39.0       39.0       39.0       39.0       39.0       39.0       39.0       39.0       39.0        0.0        0.0        0.0        0.0        0.0        0.0        0.0        0.0        0.0        0.0        0.0        0.0      0.0       4.2       2.0       6.3      10.6    383.77
    22     4  2007     3     1     771.4     0.0      0.0    0.0    0.0    0.0      0.0      0.0   -9.90      5.3      2.6     49      0.0      0.0   100      5.3     2.6      49      0.0    0.30     -9     -9     -9      0     -9     0.0     0.0      0    -9.00      0.0      0.0      0.0   100     0.0     0.000    -9.9    0.000   -9.900      -9        0.00    0.000    0.000     771.4    771.4    0.30   108.4     150.0     117.0     110.3      83.7      83.9      69.0    0.000     0.000     0.000     0.000     0.000    0.30     0.00    0.00      0   -9.90   -9.00       30.4       39.0       39.0       39.0       39.0       39.0       39.0       39.0       39.0       39.0       39.0       39.0        0.0        0.0        0.0        0.0        0.0        0.0        0.0        0.0        0.0        0.0        0.0        0.0      0.0       4.8       1.0       7.2      13.4    383.77
    23     4  2007     4     1     769.1     0.0      0.0    0.0    0.0    0.0      0.0      0.0   -9.90      6.3      2.4     38      0.0      0.0   100      6.3     2.4      38      0.8    0.30     -9     -9     -9      0     -9     0.0     0.0      0    -9.00      0.0      0.0      0.0   100     0.0     0.000    -9.9    0.000   -9.900      -9        0.00    0.000    0.000     769.1    769.1    0.30   106.1     150.0     117.0     110.3      84.7      83.9      69.0    0.000     0.000     0.000     0.000     0.000    0.30     0.00    0.00      0   -9.90   -9.00       28.1       39.0       39.0       39.0       39.0       39.0       39.0       39.0       39.0       39.0       39.0       39.0        0.0        0.0        0.0        0.0        0.0        0.0        0.0        0.0        0.0        0.0        0.0        0.0      0.0       5.7       3.0       9.8      16.5    383.77
    24     4  2007     5     1     766.8     0.0      0.0    0.0    0.0    0.0      0.0      0.0   -9.90      7.7      2.3     30      0.0      0.0   100      7.7     2.3      30      4.8    0.30     -9     -9     -9      0     -9     0.0     0.0      0    -9.00      0.0      0.0      0.0   100     0.0     0.000    -9.9    0.000   -9.900      -9        0.00    0.000    0.000     766.8    766.8    0.30   103.8     150.0     117.0     110.3      86.1      83.9      69.0    0.000     0.000     0.000     0.000     0.000    0.30     0.00    0.00      0   -9.90   -9.00       25.8       39.0       39.0       39.0       39.0       39.0       39.0       39.0       39.0       39.0       39.0       39.0        0.0        0.0        0.0        0.0        0.0        0.0        0.0        0.0        0.0        0.0        0.0        0.0      0.0       7.0       7.4      13.8      20.1    383.77
    25     4  2007     6     1     765.2     0.0      0.0    0.0    0.0    0.0      0.0      0.0   -9.90      6.4      1.6     24      0.0      0.0   100      6.4     1.6      24      5.4    0.30     -9     -9     -9      0     -9     0.0     0.0      0    -9.00      0.0      0.0      0.0   100     0.0     0.000    -9.9    0.000   -9.900      -9        0.00    0.000    0.000     765.2    765.2    0.30   102.2     150.0     117.0     110.3      84.8      83.9      69.0    0.000     0.000     0.000     0.000     0.000    0.30     0.00    0.00      0   -9.90   -9.00       24.2       39.0       39.0       39.0       39.0       39.0       39.0       39.0       39.0       39.0       39.0       39.0        0.0        0.0        0.0        0.0        0.0        0.0        0.0        0.0        0.0        0.0        0.0        0.0      0.0       5.8       8.8      14.4      20.0    383.77
    26     4  2007     7     1     764.0     0.0      0.0    0.0    0.0    0.0      0.0      0.0   -9.90      5.9      1.3     21      0.0      0.0   100      5.9     1.3      21      5.3    0.32     -9     -9     -9      0     -9     0.0     0.0      0    -9.00      0.0      0.0      0.0   100     0.0     0.000    -9.9    0.000   -9.900      -9        0.00    0.000    0.000     764.0    764.0    0.32   110.5     162.2     126.6     119.3      91.2      90.7      74.6    0.000     0.000     0.000     0.000     0.000    0.32     0.00    0.00      0   -9.90   -9.00       23.0       39.0       39.0       39.0       39.0       39.0       39.0       39.0       39.0       39.0       39.0       39.0        0.0        0.0        0.0        0.0        0.0        0.0        0.0        0.0        0.0        0.0        0.0        0.0      0.0       5.4       9.3      14.3      19.3    383.77
    27     4  2007     8     1     762.7     0.0      0.0    0.0    0.0    0.0      0.0      0.0   -9.90      6.9      1.3     18      0.0      0.0   100      6.9     1.3      18      5.2    0.35     -9     -9     -9      0     -9     0.0     0.0      0    -9.00      0.0      0.0      0.0   100     0.0     0.000    -9.9    0.000   -9.900      -9        0.00    0.000    0.000     762.7    762.7    0.35   120.3     176.4     137.6     129.7     100.4      98.7      81.2    0.000     0.000     0.000     0.000     0.000    0.35     0.00    0.00      0   -9.90   -9.00       21.7       39.0       39.0       39.0       39.0       39.0       39.0       39.0       39.0       39.0       39.0       39.0        0.0        0.0        0.0        0.0        0.0        0.0        0.0        0.0        0.0        0.0        0.0        0.0      0.0       6.3       7.6      14.2      20.9    383.77
    28     4  2007     9     1     761.4     0.0      0.0    0.0    0.0    0.0      0.0      0.0   -9.90      7.9      1.3     16      0.0      0.0   100      7.9     1.3      16      6.8    0.38     -9     -9     -9      0     -9     0.0     0.0      0    -9.00      0.0      0.0      0.0   100     0.0     0.000    -9.9    0.000   -9.900      -9        0.00    0.000    0.000     761.4    761.4    0.38   129.5     189.8     148.0     139.5     109.2     106.1      87.3    0.000     0.000     0.000     0.000     0.000    0.38     0.00    0.00      0   -9.90   -9.00       20.4       39.0       39.0       39.0       39.0       39.0       39.0       39.0       39.0       39.0       39.0       39.0        0.0        0.0        0.0        0.0        0.0        0.0        0.0        0.0        0.0        0.0        0.0        0.0      0.0       7.2       8.3      15.8      23.3    383.77
    29     4  2007    10     2     761.3     3.9      0.0    0.0    3.9    0.0      0.0      0.0   -9.90      4.1      4.0     96      0.0      0.0   100      4.2     4.0      96      3.1    0.41     -9      0      0      0      0     0.4     0.4     88     0.01      0.0      0.0      0.0   100    30.5     0.000    -9.9    0.000   -9.900     100        0.00    0.000    0.000     761.3    761.3    0.41   139.3     202.6     158.0     146.0     111.5     111.5      93.2    0.000     0.000     0.000     0.000     0.000    0.41     0.00    0.00      0   -9.90   -9.00       20.3       39.0       39.0       39.0       39.0       39.0       39.0       39.0       39.0       39.0       39.0       39.0        0.0        0.0        0.0        0.0        0.0        0.0        0.0        0.0        0.0        0.0        0.0        0.0      3.9       3.8       7.1      12.1      17.2    383.77
    30     4  2007    11     2     759.7     0.0      0.0    0.0    0.0    0.0      0.0      0.0   -9.90      5.1      1.6     31      0.0      0.0   100      5.1     1.6      31      0.6    0.43     -9      0      0      0      0     0.6     0.6     99     0.01      0.0      0.0      0.0   100    30.5     0.000    -9.9    0.000   -9.900     100        0.00    0.000    0.000     759.7    759.7    0.43   147.3     214.9     167.6     157.2     119.7     119.7      98.8    0.000     0.000     0.000     0.000     0.000    0.43     0.00    0.00      0   -9.90   -9.00       18.7       39.0       39.0       39.0       39.0       39.0       39.0       39.0       39.0       39.0       39.0       39.0        0.0        0.0        0.0        0.0        0.0        0.0        0.0        0.0        0.0        0.0        0.0        0.0      0.0       4.7       4.3       9.6      14.9    383.77
     1     5  2007    12     2     758.6     0.1      0.0    0.0    0.1    0.0      0.0      0.0   -9.90      4.3      1.2     28      0.0      0.0   100      4.3     1.2      28      0.0    0.45      4     -9      0      0      0     0.7     0.7    100    -9.00      0.0      0.0      0.0   100    30.5     0.000    -9.9    0.000   -9.900     100        0.00    0.000    0.000     758.6    758.6    0.45   155.5     226.7     176.9     164.0     125.1     125.1     104.3    0.000     0.000     0.000     0.000     0.000    0.45     0.00    0.00      0   -9.90   -9.00       17.6       39.0       39.0       39.0       39.0       39.0       39.0       39.0       39.0       39.0       39.0       39.0        0.0        0.0        0.0        0.0        0.0        0.0        0.0        0.0        0.0        0.0        0.0        0.0      0.1       4.0       2.1       5.6       9.1    383.77
     2     5  2007    13     2     757.4     0.0      0.0    0.0    0.0    0.0      0.0      0.0   -9.90      5.4      1.2     22      0.0      0.0   100      5.4     1.2      22      0.0    0.48      6     -9      0      0      0     0.9     0.9    100    -9.00      0.0      0.0      0.0   100    30.5     0.000    -9.9    0.000   -9.900     100        0.00    0.000    0.000     757.4    757.4    0.48   163.3     238.3     185.9     175.2     133.3     133.3     109.6    0.000     0.000     0.000     0.000     0.000    0.48     0.00    0.00      0   -9.90   -9.00       16.4       39.0       39.0       39.0       39.0       39.0       39.0       39.0       39.0       39.0       39.0       39.0        0.0        0.0        0.0        0.0        0.0        0.0        0.0        0.0        0.0        0.0        0.0        0.0      0.0       5.0      -0.3       6.0      12.3    383.77
     3     5  2007    14     2     756.2     0.3      0.0    0.0    0.3    0.0      0.0      0.0   -9.90      6.7      1.5     22      0.0      0.0   100      6.7     1.5      22      0.0    0.50      8     -9      0      0      0     1.1     1.1    100    -9.00      0.0      0.0      0.0   100    30.5     0.000    -9.9    0.000   -9.900     100        0.00    0.000    0.000     756.2    756.2    0.50   170.9     249.5     194.6     187.1     141.8     141.8     114.8    0.000     0.000     0.000     0.000     0.000    0.50     0.00    0.00      0   -9.90   -9.00       15.2       39.0       39.0       39.0       39.0       39.0       39.0       39.0       39.0       39.0       39.0       39.0        0.0        0.0        0.0        0.0        0.0        0.0        0.0        0.0        0.0        0.0        0.0        0.0      0.3       6.2       1.5       9.0      16.5    383.77
     4     5  2007    15     2     755.2     0.0      0.0    0.0    0.0    0.0      0.0      0.0   -9.90      6.7      1.1     16      0.0      0.0   100      6.7     1.1      16      0.5    0.52      9      0      0      0      0     1.3     1.3     99     0.02      0.0      0.0      0.0   100    30.5     0.000    -9.9    0.000   -9.900      99        0.00    0.000    0.000     755.2    755.2    0.52   178.4     260.5     203.2     195.3     148.0     148.0     119.8    0.000     0.000     0.000     0.000     0.000    0.52     0.00    0.00      0   -9.90   -9.00       14.2       39.0       39.0       39.0       39.0       39.0       39.0       39.0       39.0       39.0       39.0       39.0        0.0        0.0        0.0        0.0        0.0        0.0        0.0        0.0        0.0        0.0        0.0        0.0      0.0       6.2       0.8       9.5      18.1    383.77
     5     5  2007    16     2     754.2     0.2      0.0    0.0    0.2    0.0      0.0      0.0   -9.90      7.0      1.1     16      0.1      0.1   100      7.0     1.2      17      5.8    0.54      9      0      0      0      0     1.6     1.6     55     0.03      0.1      0.1      0.1   100    30.5     0.004    -9.9    0.000   -9.900      93        0.00    0.000    0.000     754.2    754.2    0.54   185.8     271.3     211.6     204.4     154.7     154.7     124.8    0.000     0.000     0.000     0.000     0.000    0.54     0.00    0.00      0   -9.90   -9.00       13.3       38.9       39.0       39.0       39.0       39.0       39.0       39.0       39.0       39.0       39.0       39.0        0.0        0.0        0.0        0.0        0.0        0.0        0.0        0.0        0.0        0.0        0.0        0.0      0.2       6.5       7.9      14.8      21.6    383.77
     6     5  2007    17     2     753.8     3.0      0.0    0.0    3.0    0.0      0.0      0.0   -9.90      5.4      3.3     61      0.0      0.0   100      5.5     3.3      61      4.4    0.56      5      0      0      0      0     2.0     2.0     74     0.03      0.0      0.0      0.0   100    30.5     0.007    -9.9    0.000   -9.900      92        0.00    0.000    0.000     753.8    753.8    0.56   193.7     281.9     219.9     207.6     157.8     157.8     129.7    0.000     0.000     0.000     0.000     0.000    0.56     0.00    0.00      0   -9.90   -9.00       13.0       38.9       39.0       39.0       39.0       39.0       39.0       39.0       39.0       39.0       39.0       39.0        0.0        0.0        0.0        0.0        0.0        0.0        0.0        0.0        0.0        0.0        0.0        0.0      3.0       5.1      10.5      13.4      16.4    383.77
     7     5  2007    18     2     753.1     1.0      0.0    0.0    1.0    0.0      0.0      0.0   -9.90      6.0      1.6     26      0.2      0.2   100      6.2     1.7      28      6.9    0.58      7      0      0      0      0     2.4     2.4     36     0.04      0.2      0.2      0.2   100    30.5     0.015    -9.9    0.000   -9.900      91        0.00    0.000    0.000     753.1    753.1    0.58   201.1     292.2     227.9     217.3     164.9     164.9     134.4    0.000     0.000     0.000     0.000     0.000    0.58     0.00    0.00      0   -9.90   -9.00       12.4       38.7       39.0       39.0       39.0       39.0       39.0       39.0       39.0       39.0       39.0       39.0        0.0        0.0        0.0        0.0        0.0        0.0        0.0        0.0        0.0        0.0        0.0        0.0      1.0       5.7      11.5      15.9      20.4    383.77
     8     5  2007    19     2     752.2     0.9      0.0    0.0    0.9    0.0      0.0      0.0   -9.90      6.8      1.5     22      0.3      0.3   100      7.1     1.8      25      8.2    0.60      8      0      0      0      0     2.9     2.9     20     0.05      0.3      0.3      0.3   100    30.5     0.028    -9.9    0.000   -9.900      90        0.00    0.000    0.000     752.2    752.2    0.60   208.1     302.4     235.9     227.8     172.5     172.5     139.1    0.000     0.000     0.000     0.000     0.000    0.60     0.00    0.00      0   -9.90   -9.00       11.8       38.4       39.0       39.0       39.0       39.0       39.0       39.0       39.0       39.0       39.0       39.0        0.0        0.0        0.0        0.0        0.0        0.0        0.0        0.0        0.0        0.0        0.0        0.0      0.9       6.5      10.5      17.2      23.9    383.77
     9     5  2007    20     2     757.7     8.9      0.0    0.0    8.9    0.0      0.0      0.0   -9.90      3.4      3.4    100      0.0      0.0   100      3.4     3.4     100      3.7    0.62      0      0      0      0      0     3.7     3.7     83     0.06      0.0      0.0      0.0   100    30.5     0.031    -9.9    0.000   -9.900      90        0.00    0.000    0.000     757.7    757.7    0.62   221.4     312.5     243.7     223.3     170.8     170.8     143.7    0.000     0.000     0.000     0.000     0.000    0.62     0.00    0.00      0   -9.90   -9.00       17.3       38.4       39.0       39.0       39.0       39.0       39.0       39.0       39.0       39.0       39.0       39.0        0.0        0.0        0.0        0.0        0.0        0.0        0.0        0.0        0.0        0.0        0.0        0.0      8.9       3.3       9.2      12.7      16.2    383.77
    10     5  2007    21     2     752.1     0.0      0.0    0.0    0.0    0.0      0.0      0.0   -9.90      5.6      5.5     99      0.1      0.1   100      5.7     5.6      99      3.8    0.64      3      0      0      0      0     4.6     4.6     82     0.08      0.1      0.1      0.1   100    30.5     0.036    -9.9    0.000   -9.900      89        0.00    0.000    0.000     752.1    752.1    0.64   223.6     322.4     251.5     239.0     181.5     181.5     148.3    0.000     0.000     0.000     0.000     0.000    0.64     0.00    0.00      0   -9.90   -9.00       11.8       38.3       39.0       39.0       39.0       39.0       39.0       39.0       39.0       39.0       39.0       39.0        0.0        0.0        0.0        0.0        0.0        0.0        0.0        0.0        0.0        0.0        0.0        0.0      0.0       5.5       8.1      12.8      17.5    383.77
    11     5  2007    22     2     750.8     0.0      0.0    0.0    0.0    0.0      0.0      0.0   -9.90      7.7      0.7      9      0.6      0.6   100      8.3     1.3      16      8.9    0.66     11      0      0      0      0     5.6     5.6     14     0.10      0.6      0.6      0.6   100    30.5     0.061    -9.9    0.000   -9.900      88        0.00    0.000    0.000     750.8    750.8    0.66   229.8     332.2     259.1     255.0     192.4     192.4     152.8    0.000     0.000     0.000     0.000     0.000    0.66     0.00    0.00      0   -9.90   -9.00       11.5       37.3       39.0       39.0       39.0       39.0       39.0       39.0       39.0       39.0       39.0       39.0        0.0        0.0        0.0        0.0        0.0        0.0        0.0        0.0        0.0        0.0        0.0        0.0      0.0       7.7      10.9      17.9      24.9    383.77
    12     5  2007    23     2     749.7     3.3      0.0    0.0    3.3    0.0      0.0      0.0   -9.90      7.0      3.6     51      0.7      0.7   100      7.8     4.3      56      8.8    0.68      8      0      0      0      0     6.8     6.8     15     0.12      0.7      0.7      0.7   100    30.5     0.092    -9.9    0.000   -9.900      87        0.00    0.000    0.000     749.7    749.7    0.68   236.3     341.8     266.6     260.4     196.7     196.7     157.2    0.000     0.000     0.000     0.000     0.000    0.68     0.00    0.00      0   -9.90   -9.00       11.5       36.2       39.0       39.0       39.0       39.0       39.0       39.0       39.0       39.0       39.0       39.0        0.0        0.0        0.0        0.0        0.0        0.0        0.0        0.0        0.0        0.0        0.0        0.0      3.3       7.2      11.5      17.8      24.1    383.77
    13     5  2007    24     2     748.8     0.0      0.0    0.0    0.0    0.0      0.0      0.0   -9.90      5.6      0.4      8      0.5      0.5   100      6.1     1.0      16      6.8    0.70      7      0      0      0      0     8.4     8.4     37     0.14      0.5      0.5      0.5   100    30.5     0.120    -9.9    0.000   -9.900      86        0.00    0.000    0.000     748.8    748.8    0.70   242.8     351.3     274.1     262.1     198.8     198.8     161.6    0.000     0.000     0.000     0.000     0.000    0.70     0.00    0.00      0   -9.90   -9.00       11.5       35.3       39.0       39.0       39.0       39.0       39.0       39.0       39.0       39.0       39.0       39.0        0.0        0.0        0.0        0.0        0.0        0.0        0.0        0.0        0.0        0.0        0.0        0.0      0.0       5.9       9.3      15.8      22.4    383.77
    14     5  2007    25     2     747.0     0.0      0.0    0.0    0.0    0.0      0.0      0.0   -9.90      7.3      0.5      7      1.2      1.2   100      8.6     1.8      21      9.3    0.72     12      0      0      0      0    10.2    10.2     11     0.17      1.2      1.2      1.2   100    30.5     0.167    -9.9    0.000   -9.900      85        0.00    0.000    0.000     747.0    747.0    0.72   248.4     360.8     281.4     278.3     209.8     209.8     166.0    0.000     0.000     0.000     0.000     0.000    0.72     0.00    0.00      0   -9.90   -9.00       11.5       33.5       39.0       39.0       39.0       39.0       39.0       39.0       39.0       39.0       39.0       39.0        0.0        0.0        0.0        0.0        0.0        0.0        0.0        0.0        0.0        0.0        0.0        0.0      0.0       8.0       9.3      18.3      27.3    383.77
    15     5  2007    26     2     744.1     0.0      0.0    0.0    0.0    0.0      0.0      0.0   -9.90      9.4      0.6      7      2.2      2.2   100     11.7     2.9      24     12.5    0.74     17      0      0      0      0    12.3    12.3      0     0.21      2.2      2.2      2.2   100    30.5     0.230    -9.9    0.000   -9.900      83        0.00    0.000    0.000     744.1    744.1    0.74   252.8     370.1     288.7     288.7     222.6     222.6     170.2    0.000     0.000     0.000     0.000     0.000    0.74     0.00    0.00      0   -9.90   -9.00       11.5       30.6       39.0       39.0       39.0       39.0       39.0       39.0       39.0       39.0       39.0       39.0        0.0        0.0        0.0        0.0        0.0        0.0        0.0        0.0        0.0        0.0        0.0        0.0      0.0      10.7      15.1      21.5      27.9    383.77
    16     5  2007    27     2     741.4     0.0      0.0    0.0    0.0    0.0      0.0      0.0   -9.90      8.3      0.5      6      2.3      2.3   100     10.6     2.8      26     10.2    0.76     18      0      0      0      0    14.8    14.8      6     0.24      2.3      2.3      2.3   100    30.5     0.300    -9.9    0.000   -9.900      82        0.00    0.000    0.000     741.4    741.4    0.76   257.2     379.3     295.9     295.9     225.9     225.9     174.5    0.000     0.000     0.000     0.000     0.000    0.76     0.00    0.00      0   -9.90   -9.00       11.5       27.9       39.0       39.0       39.0       39.0       39.0       39.0       39.0       39.0       39.0       39.0        0.0        0.0        0.0        0.0        0.0        0.0        0.0        0.0        0.0        0.0        0.0        0.0      0.0       9.9      12.2      19.2      26.3    383.77
    17     5  2007    28     2     738.6     0.0      0.0    0.0    0.0    0.0      0.0      0.0   -9.90      7.2      0.4      5      2.4      2.4   100      9.6     2.8      29     10.4    0.78     18      0      0      0      0    17.7    17.7      6     0.29      2.4      2.4      2.4   100    30.5     0.383    -9.9    0.000   -9.900      80        0.00    0.000    0.000     738.6    738.6    0.78   261.5     388.4     303.0     303.0     228.7     228.7     178.7    0.000     0.000     0.000     0.000     0.000    0.78     0.00    0.00      0   -9.90   -9.00       11.5       25.1       39.0       39.0       39.0       39.0       39.0       39.0       39.0       39.0       39.0       39.0        0.0        0.0        0.0        0.0        0.0        0.0        0.0        0.0        0.0        0.0        0.0        0.0      0.0       9.0      13.1      19.4      25.6    383.77
    18     5  2007    29     2     736.4     1.5      0.0    0.0    1.5    0.0      0.0      0.0   -9.90      5.1      1.7     32      2.0      2.0   100      7.1     3.6      51      8.7    0.79     13      0      0      0      0    21.5    21.5     15     0.34      2.0      2.0      2.0   100    30.5     0.471    -9.9    0.000   -9.900      79        0.00    0.000    0.000     736.4    736.4    0.79   266.5     397.5     310.0     301.3     227.9     227.9     182.8    0.000     0.000     0.000     0.000     0.000    0.79     0.00    0.00      0   -9.90   -9.00       11.5       22.9       39.0       39.0       39.0       39.0       39.0       39.0       39.0       39.0       39.0       39.0        0.0        0.0        0.0        0.0        0.0        0.0        0.0        0.0        0.0        0.0        0.0        0.0      1.5       6.9      11.0      17.7      24.4    383.77
    19     5  2007    30     2     734.2     0.0      0.0    0.0    0.0    0.0      0.0      0.0   -9.90      3.6      0.1      4      2.1      2.1   100      5.7     2.2      39     11.6    0.81     10      0      0      0      0    26.3    26.3      3     0.41      2.1      2.1      2.1   100    30.5     0.592    -9.9    0.000   -9.900      77        0.00    0.000    0.000     734.2    734.2    0.81   271.2     406.4     317.0     300.3     228.2     228.2     187.0    0.000     0.000     0.000     0.000     0.000    0.81     0.00    0.00      0   -9.90   -9.00       11.5       22.8       37.6       39.0       39.0       39.0       39.0       39.0       39.0       39.0       39.0       39.0        0.0        0.0        0.0        0.0        0.0        0.0        0.0        0.0        0.0        0.0        0.0        0.0      0.0       5.3      15.6      20.6      25.7    383.77
    20     5  2007    31     2     730.2     0.1      0.0    0.0    0.1    0.0      0.0      0.0   -9.90      4.8      0.3      5      3.8      3.8   100      8.6     4.0      47     12.9    0.83     19      0      0      0      0    31.5    31.5      0     0.47      3.8      3.8      3.8   100    30.5     0.736    -9.9    0.000   -9.900      77        0.00    0.000    0.000     730.2    730.2    0.83   274.2     415.3     323.9     320.4     241.5     241.5     191.0    0.000     0.000     0.000     0.000     0.000    0.83     0.00    0.00      0   -9.90   -9.00       11.5       22.6       35.1       39.0       39.0       39.0       39.0       39.0       39.0       39.0       39.0       39.0        0.0        0.0        0.0        0.0        0.0        0.0        0.0        0.0        0.0        0.0        0.0        0.0      0.1       8.0      14.9      21.9      28.8    383.77
    21     5  2007    32     2     724.3     0.0      0.0    0.0    0.0    0.0      0.0      0.0   -9.90      5.8      0.2      3      5.8      5.8   100     11.6     6.0      52     14.8    0.85     29      0      0      0      0    36.8    36.8      0     0.54      5.8      5.8      5.8   100    30.5     0.900    -9.9    0.000   -9.900      78        0.00    0.000    0.000     724.3    724.3    0.85   275.1     424.1     330.8     330.8     255.4     255.4     195.1    0.000     0.000     0.000     0.000     0.000    0.85     0.00    0.00      0   -9.90   -9.00       11.5       22.4       31.2       39.0       39.0       39.0       39.0       39.0       39.0       39.0       39.0       39.0        0.0        0.0        0.0        0.0        0.0        0.0        0.0        0.0        0.0        0.0        0.0        0.0      0.0      10.8      17.5      24.5      31.5    383.77
    22     5  2007    33     2     718.9     0.4      0.0    0.0    0.4    0.0      0.0      0.0   -9.90      4.2      0.5     13      5.2      5.2   100      9.4     5.7      61     13.4    0.87     30      0      0      0      0    41.5    41.5      0     0.59      5.2      5.2      5.2   100    30.5     1.080    -9.9    0.000   -9.900      78        0.00    0.000    0.000     718.9    718.9    0.87   276.6     432.9     337.6     337.6     254.2     254.2     199.1    0.000     0.000     0.000     0.000     0.000    0.87     0.00    0.00      0   -9.90   -9.00       11.5       22.3       27.8       39.0       39.0       39.0       39.0       39.0       39.0       39.0       39.0       39.0        0.0        0.0        0.0        0.0        0.0        0.0        0.0        0.0        0.0        0.0        0.0        0.0      0.4       8.8      15.2      22.4      29.6    383.77
    23     5  2007    34     2     711.6     0.2      0.0    0.0    0.2    0.0      0.0      0.0   -9.90      5.1      0.4      7      7.2      7.2   100     12.3     7.5      61     14.4    0.88     45      0      0      0      0    44.8    44.8      0     0.62      7.2      7.2      7.2   100    30.5     1.271    -9.9    0.000   -9.900      79        0.00    0.000    0.000     711.6    711.6    0.88   276.0     441.5     344.4     344.4     268.2     268.2     203.1    0.000     0.000     0.000     0.000     0.000    0.88     0.00    0.00      0   -9.90   -9.00       11.5       22.1       23.9       38.0       39.0       39.0       39.0       39.0       39.0       39.0       39.0       39.0        0.0        0.0        0.0        0.0        0.0        0.0        0.0        0.0        0.0        0.0        0.0        0.0      0.2      11.5      16.8      24.6      32.4    383.77
    24     5  2007    35     2     704.3     4.2      0.0    0.0    4.2    0.0      0.0      0.0   -9.90      4.6      4.2     91      7.3      7.3   100     11.9    11.5      97     16.0    0.90     47      0      0      0      0    47.6    47.6      0     0.65      7.3      7.3      7.3   100    30.5     1.470    -9.9    0.000   -9.900      80        0.00    0.000    0.000     704.3    704.3    0.90   275.4     450.1     351.1     351.1     272.4     272.4     207.1    0.000     0.000     0.000     0.000     0.000    0.90     0.00    0.00      0   -9.90   -9.00       11.5       22.1       21.8       35.3       39.0       39.0       39.0       39.0       39.0       39.0       39.0       39.0        0.0        0.0        0.0        0.0        0.0        0.0        0.0        0.0        0.0        0.0        0.0        0.0      4.2      11.2      20.0      26.1      32.3    383.77
    25     5  2007    36     2     697.3     1.9      0.0    0.0    1.9    0.0      0.0      0.0   -9.90      4.1      2.0     49      6.9      6.9   100     11.0     8.9      81     15.6    0.92     59      0      0      0      0    49.5    49.5      0     0.67      6.9      6.9      6.9   100    30.5     1.675    -9.9    0.000   -9.900      81        0.00    0.000    0.000     697.3    697.3    0.92   275.0     458.6     357.7     357.7     274.5     274.5     211.0    0.000     0.000     0.000     0.000     0.000    0.92     0.00    0.00      0   -9.90   -9.00       11.5       22.1       21.8       32.1       37.6       39.0       39.0       39.0       39.0       39.0       39.0       39.0        0.0        0.0        0.0        0.0        0.0        0.0        0.0        0.0        0.0        0.0        0.0        0.0      1.9      10.3      19.2      25.3      31.4    383.77
    26     5  2007    37     2     690.4     2.7      0.0    0.0    2.7    0.0      0.0      0.0   -9.90      3.8      2.7     72      6.8      6.8   100     10.6     9.6      90     15.3    0.93     68      0      0      0      0    50.8    50.8      0     0.68      6.8      6.8      6.8   100    30.5     1.884    -9.9    0.000   -9.900      81        0.00    0.000    0.000     690.4    690.4    0.93   274.8     467.1     364.3     364.3     278.5     278.5     214.9    0.000     0.000     0.000     0.000     0.000    0.93     0.00    0.00      0   -9.90   -9.00       11.5       22.0       21.8       28.9       36.2       39.0       39.0       39.0       39.0       39.0       39.0       39.0        0.0        0.0        0.0        0.0        0.0        0.0        0.0        0.0        0.0        0.0        0.0        0.0      2.7      10.0      18.6      24.5      30.4    383.77
    27     5  2007    38     2     684.0     3.0      0.0    0.0    3.0    0.0      0.0      0.0   -9.90      3.4      3.0     88      6.4      6.4   100      9.8     9.4      96     14.6    0.95     75      0      0      0      0    51.7    51.7      0     0.69      6.4      6.4      6.4   100    30.5     2.096    -9.9    0.000   -9.900      82        0.00    0.000    0.000     684.0    684.0    0.95   274.9     475.5     370.9     370.9     280.7     280.7     218.7    0.000     0.000     0.000     0.000     0.000    0.95     0.00    0.00      0   -9.90   -9.00       11.5       22.0       21.8       25.7       35.2       39.0       39.0       39.0       39.0       39.0       39.0       39.0        0.0        0.0        0.0        0.0        0.0        0.0        0.0        0.0        0.0        0.0        0.0        0.0      3.0       9.2      17.1      24.2      31.3    383.77
    28     5  2007    39     2     678.3     0.6      0.0    0.0    0.6    0.0      0.0      0.0   -9.90      3.0      0.7     22      5.7      5.6    99      8.7     6.3      72     15.1    0.97     85      1      0      0      0    51.7    51.7      0     0.69      5.7      5.6      5.6    99    30.5     2.305    -9.9    0.000   -9.900      82        0.00    0.000    0.000     678.3    678.3    0.97   275.7     483.9     377.4     374.4     282.1     282.1     222.6    0.000     0.000     0.000     0.000     0.000    0.97     0.00    0.00      0   -9.90   -9.00       11.5       21.9       21.8       22.6       34.5       39.0       39.0       39.0       39.0       39.0       39.0       39.0        0.0        0.0        0.0        0.0        0.0        0.0        0.0        0.0        0.0        0.0        0.0        0.0      0.6       8.2      18.8      24.1      29.4    383.77
    29     5  2007    40     2     673.1     0.3      0.0    0.0    0.3    0.0      0.0      0.0   -9.90      2.9      0.4     13      5.4      5.1    94      8.3     5.5      66     13.8    0.98     93      6      1      0      0    51.6    51.6      0     0.69      5.4      5.1      5.1    94    30.5     2.505    -9.9    0.000   -9.900      81        0.00    0.000    0.000     673.1    673.1    0.98   277.0     492.2     383.9     378.5     285.4     297.2     226.4    0.000     0.000     0.000     0.000     0.000    0.98     0.00    0.00      0   -9.90   -9.00       11.5       21.8       21.8       22.6       31.9       38.2       39.0       39.0       39.0       39.0       39.0       39.0        0.0        0.0        0.0        0.0        0.0        0.0        0.0        0.0        0.0        0.0        0.0        0.0      0.3       7.8      16.7      22.8      28.9    383.77
    30     5  2007    41     2     669.0     2.4      0.0    0.0    2.4    0.0      0.0      0.0   -9.90      2.3      2.3    100      4.3      4.2    99      6.6     6.5      99     12.6    1.00     81      1      0      0      0    51.6    51.6      0     0.69      4.3      4.2      4.2    99    30.5     2.714    -9.9    0.000   -9.900      82        0.00    0.000    0.000     669.0    669.0    1.00   279.3     500.4     390.3     375.1     284.3     297.0     230.2    0.000     0.000     0.000     0.000     0.000    1.00     0.00    0.00      0   -9.90   -9.00       11.6       21.8       21.8       22.6       29.3       38.0       39.0       39.0       39.0       39.0       39.0       39.0        0.0        0.0        0.0        0.0        0.0        0.0        0.0        0.0        0.0        0.0        0.0        0.0      2.4       6.2      17.1      21.6      26.1    383.77
    31     5  2007    42     2     664.7     2.5      0.0    0.0    2.5    0.0      0.0      0.0   -9.90      2.5      2.5     99      4.7      4.3    90      7.2     6.8      93     12.8    1.02     93     10      1      0      0    51.6    51.6      0     0.69      4.7      4.3      4.3    90    30.5     2.905    -9.9    0.000   -9.900      81        0.00    0.000    0.000     664.7    664.7    1.02   281.5     508.6     396.7     385.0     291.2     303.9     234.0    0.000     0.000     0.000     0.000     0.000    1.02     0.00    0.00      0   -9.90   -9.00       11.6       21.8       21.8       22.6       26.6       37.9       39.0       39.0       39.0       39.0       39.0       39.0        0.0        0.0        0.0        0.0        0.0        0.0        0.0        0.0        0.0        0.0        0.0        0.0      2.5       6.8      16.3      21.8      27.3    383.77
     1     6  2007    43     2     660.5     2.6      0.0    0.0    2.6    0.0      0.0      0.0   -9.90      2.8      2.6     95      5.1      4.2    83      7.9     6.8      87     12.9    1.03    100     17      3      0      0    51.5    51.5      0     0.69      5.1      4.2      4.2    83    30.5     3.080    -9.9    0.000   -9.900      80        0.00    0.000    0.000     660.5    660.5    1.03   283.6     516.7     403.1     394.9     298.1     310.7     237.7    0.000     0.000     0.000     0.000     0.000    1.03     0.00    0.00      0   -9.90   -9.00       11.6       21.8       21.8       22.6       23.9       37.7       39.0       39.0       39.0       39.0       39.0       39.0        0.0        0.0        0.0        0.0        0.0        0.0        0.0        0.0        0.0        0.0        0.0        0.0      2.6       7.4      15.5      21.9      28.4    383.77
     2     6  2007    44     2     656.3     0.0      0.0    0.0    0.0    0.0      0.0      0.0   -9.90      3.0      0.1      3      5.4      4.1    76      8.4     4.2      51     12.6    1.05    100     24      6      0      0    51.3    51.3      0     0.69      5.4      4.1      4.1    76    30.5     3.240    -9.9    0.000   -9.900      79        0.00    0.000    0.000     656.3    656.3    1.05   285.6     524.8     409.3     404.2     304.7     317.3     241.4    0.000     0.000     0.000     0.000     0.000    1.05     0.00    0.00      0   -9.90   -9.00       11.5       21.8       21.8       22.6       22.3       36.6       39.0       39.0       39.0       39.0       39.0       39.0        0.0        0.0        0.0        0.0        0.0        0.0        0.0        0.0        0.0        0.0        0.0        0.0      0.0       7.9      16.2      21.6      27.1    383.77
     3     6  2007    45     2     652.8     0.1      0.0    0.0    0.1    0.0      0.0      0.0   -9.90      2.4      0.2      7      4.2      3.4    81      6.6     3.6      54     11.9    1.07    100     19      5      0      0    51.2    51.2      2     0.68      4.2      3.4      3.4    81    30.5     3.404    -9.9    0.000   -9.900      78        0.00    0.000    0.000     652.8    652.8    1.07   288.4     532.8     415.6     400.1     303.1     316.6     245.1    0.000     0.000     0.000     0.000     0.000    1.07     0.00    0.00      0   -9.90   -9.00       11.5       21.8       21.8       22.6       22.3       34.5       38.9       39.0       39.0       39.0       39.0       39.0        0.0        0.0        0.0        0.0        0.0        0.0        0.0        0.0        0.0        0.0        0.0        0.0      0.1       6.3      15.1      20.9      26.8    383.77
     4     6  2007    46     2     649.9     0.1      0.0    0.0    0.1    0.0      0.0      0.0   -9.90      2.0      0.2      8      3.4      2.9    84      5.3     3.0      56     10.9    1.08    100     16      4      0      0    51.0    51.0      4     0.68      3.4      2.9      2.9    84    30.5     3.572    -9.9    0.000   -9.900      78        0.00    0.000    0.000     649.9    649.9    1.08   291.7     540.8     421.8     398.9     303.2     317.4     248.7    0.000     0.000     0.000     0.000     0.000    1.08     0.00    0.00      0   -9.90   -9.00       11.5       21.7       21.8       22.6       22.3       32.6       38.9       39.0       39.0       39.0       39.0       39.0        0.0        0.0        0.0        0.0        0.0        0.0        0.0        0.0        0.0        0.0        0.0        0.0      0.1       5.2      15.4      19.9      24.5    383.77
     5     6  2007    47     2     648.0     1.9      0.0    0.0    1.9    0.0      0.0      0.0   -9.90      1.5      1.5    100      2.5      2.3    92      4.0     3.8      95     11.0    1.10     93      8      1      0      0    51.0    51.0      4     0.68      2.5      2.3      2.3    92    30.5     3.755    -9.9    0.000   -9.900      77        0.00    0.000    0.000     648.0    648.0    1.10   296.0     548.7     428.0     396.1     302.4     317.4     252.4    0.000     0.000     0.000     0.000     0.000    1.10     0.00    0.00      0   -9.90   -9.00       11.9       21.7       21.8       22.6       22.3       31.0       38.9       39.0       39.0       39.0       39.0       39.0        0.0        0.0        0.0        0.0        0.0        0.0        0.0        0.0        0.0        0.0        0.0        0.0      1.9       3.9      15.7      20.0      24.4    383.77
     6     6  2007    48     2     643.9     0.0      0.0    0.0    0.0    0.0      0.0      0.0   -9.90      3.0      0.5     17      5.4      3.6    68      8.4     4.1      49     12.9    1.11    100     32     10      0      0    50.7    50.7      0     0.67      5.4      3.6      3.6    68    30.5     3.893    -9.9    0.000   -9.900      76        0.00    0.000    0.000     643.9    643.9    1.11   298.0     556.6     434.1     429.3     323.6     336.9     256.0    0.000     0.000     0.000     0.000     0.000    1.11     0.00    0.00      0   -9.90   -9.00       11.5       21.6       21.8       22.6       22.3       28.7       38.7       39.0       39.0       39.0       39.0       39.0        0.0        0.0        0.0        0.0        0.0        0.0        0.0        0.0        0.0        0.0        0.0        0.0      0.0       8.0      15.6      21.9      28.1    383.77
     7     6  2007    49     2     640.6     0.0      0.0    0.0    0.0    0.0      0.0      0.0   -9.90      2.8      0.1      3      4.8      3.2    67      7.6     3.3      43     11.8    1.13    100     33     10      0      0    50.4    50.4      2     0.66      4.8      3.2      3.2    67    30.5     4.027    -9.9    0.000   -9.900      75        0.00    0.000    0.000     640.6    640.6    1.13   300.8     564.4     440.2     431.2     325.6     339.4     259.6    0.000     0.000     0.000     0.000     0.000    1.13     0.00    0.00      0   -9.90   -9.00       11.5       21.6       21.8       22.6       22.3       26.6       38.7       39.0       39.0       39.0       39.0       39.0        0.0        0.0        0.0        0.0        0.0        0.0        0.0        0.0        0.0        0.0        0.0        0.0      0.0       7.4      15.3      20.8      26.2    383.77
     8     6  2007    50     2     637.6     0.0      0.0    0.0    0.0    0.0      0.0      0.0   -9.90      2.6      0.1      3      4.3      2.9    68      6.9     3.0      44     11.8    1.14    100     32     10      0      0    50.0    50.0      2     0.66      4.3      2.9      2.9    68    30.5     4.160    -9.9    0.000   -9.900      74        0.00    0.000    0.000     637.6    637.6    1.14   303.8     572.1     446.2     432.3     327.1     341.4     263.2    0.000     0.000     0.000     0.000     0.000    1.14     0.00    0.00      0   -9.90   -9.00       11.5       21.5       21.8       22.6       22.3       24.6       38.7       39.0       39.0       39.0       39.0       39.0        0.0        0.0        0.0        0.0        0.0        0.0        0.0        0.0        0.0        0.0        0.0        0.0      0.0       6.7      13.7      20.8      27.8    383.77
     9     6  2007    51     2     634.4     0.0      0.0    0.0    0.0    0.0      0.0      0.0   -9.90      3.0      0.1      3      4.9      3.1    63      7.9     3.2      40     13.2    1.16    100     37     13      0      0    49.5    49.5      0     0.64      4.9      3.1      3.1    63    30.5     4.283    -9.9    0.000   -9.900      73        0.00    0.000    0.000     634.4    634.4    1.16   306.6     579.8     452.2     444.4     335.4     349.4     266.7    0.000     0.000     0.000     0.000     0.000    1.16     0.00    0.00      0   -9.90   -9.00       11.5       21.4       21.8       22.6       22.3       22.7       38.6       39.0       39.0       39.0       39.0       39.0        0.0        0.0        0.0        0.0        0.0        0.0        0.0        0.0        0.0        0.0        0.0        0.0      0.0       7.6      15.4      22.2      29.0    383.77
    10     6  2007    52     2     631.2     0.0      0.0    0.0    0.0    0.0      0.0      0.0   -9.90      3.4      0.1      3      5.4      3.1    58      8.7     3.2      36     13.3    1.17    100     42     15      0      0    49.0    49.0      0     0.63      5.4      3.1      3.1    58    30.5     4.394    -9.9    0.000   -9.900      72        0.00    0.000    0.000     631.2    631.2    1.17   309.4     587.4     458.1     456.6     343.7     357.4     270.2    0.000     0.000     0.000     0.000     0.000    1.17     0.00    0.00      0   -9.90   -9.00       11.5       21.3       21.8       22.6       22.3       22.7       36.8       38.8       39.0       39.0       39.0       39.0        0.0        0.0        0.0        0.0        0.0        0.0        0.0        0.0        0.0        0.0        0.0        0.0      0.0       8.5      15.0      22.3      29.6    383.77
    11     6  2007    53     2     627.9     0.1      0.0    0.0    0.1    0.0      0.0      0.0   -9.90      4.1      0.2      5      6.1      3.1    51     10.2     3.4      33     13.8    1.19    100     49     20      0      0    48.3    48.3      0     0.61      6.1      3.1      3.1    51    30.5     4.490    -9.9    0.000   -9.900      70        0.00    0.000    0.000     627.9    627.9    1.19   311.9     594.9     464.0     464.0     354.7     367.8     273.6    0.000     0.000     0.000     0.000     0.000    1.19     0.00    0.00      0   -9.90   -9.00       11.5       21.2       21.8       22.6       22.3       22.7       34.9       38.7       39.0       39.0       39.0       39.0        0.0        0.0        0.0        0.0        0.0        0.0        0.0        0.0        0.0        0.0        0.0        0.0      0.1      10.0      15.9      22.8      29.6    383.77
    12     6  2007    54     2     625.9     1.9      0.0    0.0    1.9    0.0      0.0      0.0   -9.90      2.3      1.9     84      3.2      2.1    66      5.4     4.0      74     10.8    1.20    100     34     10      0      0    47.8    47.8      4     0.60      3.2      2.1      2.1    66    30.5     4.606    -9.9    0.000   -9.900      69        0.00    0.000    0.000     625.9    625.9    1.20   315.6     602.2     469.7     446.4     339.0     354.7     277.0    0.000     0.000     0.000     0.000     0.000    1.20     0.00    0.00      0   -9.90   -9.00       11.5       21.2       21.8       22.6       22.3       22.7       33.6       38.7       39.0       39.0       39.0       39.0        0.0        0.0        0.0        0.0        0.0        0.0        0.0        0.0        0.0        0.0        0.0        0.0      1.9       5.5      15.7      19.8      23.9    383.77
    13     6  2007    55     2     623.0     0.0      0.0    0.0    0.0    0.0      0.0      0.0   -9.90      3.7      0.1      3      5.1      2.7    53      8.8     2.8      32     12.4    1.22    100     47     19      0      0    47.0    47.0      0     0.58      5.1      2.7      2.7    53    30.5     4.700    -9.9    0.000   -9.900      68        0.00    0.000    0.000     623.0    623.0    1.22   318.6     609.7     475.6     475.6     358.1     372.2     280.5    0.000     0.000     0.000     0.000     0.000    1.22     0.00    0.00      0   -9.90   -9.00       11.5       21.1       21.8       22.6       22.3       22.7       31.7       38.7       39.0       39.0       39.0       39.0        0.0        0.0        0.0        0.0        0.0        0.0        0.0        0.0        0.0        0.0        0.0        0.0      0.0       8.8      14.9      21.4      27.9    383.77
    14     6  2007    56     2     620.3     0.0      0.0    0.0    0.0    0.0      0.0      0.0   -9.90      4.1      0.1      3      5.3      2.6    50      9.4     2.8      29     14.2    1.23    100     50     21      0      0    46.0    46.0      0     0.56      5.3      2.6      2.6    50    30.5     4.785    -9.9    0.000   -9.900      67        0.00    0.000    0.000     620.3    620.3    1.23   321.6     617.0     481.3     481.3     365.6     379.5     283.8    0.000     0.000     0.000     0.000     0.000    1.23     0.00    0.00      0   -9.90   -9.00       11.5       21.0       21.8       22.6       22.3       22.7       30.0       38.7       39.0       39.0       39.0       39.0        0.0        0.0        0.0        0.0        0.0        0.0        0.0        0.0        0.0        0.0        0.0        0.0      0.0       9.5      16.5      23.9      31.3    383.77
    15     6  2007    57     2     617.6     0.1      0.0    0.0    0.1    0.0      0.0      0.0   -9.90      4.6      0.2      5      5.6      2.6    46     10.2     2.8      27     15.6    1.25    100     54     24      0      0    44.9    44.9      0     0.54      5.6      2.6      2.6    46    30.5     4.860    -9.9    0.000   -9.900      66        0.00    0.000    0.000     617.6    617.6    1.25   324.5     624.3     486.9     486.9     374.1     387.6     287.2    0.000     0.000     0.000     0.000     0.000    1.25     0.00    0.00      0   -9.90   -9.00       11.5       20.8       21.8       22.6       22.3       22.7       28.3       38.7       39.0       39.0       39.0       39.0        0.0        0.0        0.0        0.0        0.0        0.0        0.0        0.0        0.0        0.0        0.0        0.0      0.1      10.4      19.2      25.8      32.3    383.77
    16     6  2007    58     2     614.9     0.0      0.0    0.0    0.0    0.0      0.0      0.0   -9.90      5.4      0.1      3      6.0      2.5    42     11.5     2.7      23     15.8    1.26    100     58     28      0      0    43.5    43.5      0     0.51      6.0      2.5      2.5    42    30.5     4.925    -9.9    0.000   -9.900      64        0.00    0.000    0.000     614.9    614.9    1.26   327.4     631.3     492.5     492.5     385.3     398.2     290.4    0.000     0.000     0.000     0.000     0.000    1.26     0.00    0.00      0   -9.90   -9.00       11.5       20.7       21.8       22.6       22.3       22.7       26.6       38.7       39.0       39.0       39.0       39.0        0.0        0.0        0.0        0.0        0.0        0.0        0.0        0.0        0.0        0.0        0.0        0.0      0.0      11.9      19.5      26.1      32.7    383.77
    17     6  2007    59     2     615.5     6.1      0.0    0.0    6.1    0.0      0.0      0.0   -9.90      3.5      3.5    100      3.6      2.0    56      7.1     5.5      78     13.9    1.28    100     44     14      0      0    42.4    42.4      0     0.48      3.6      2.0      2.0    56    30.5     5.008    -9.9    0.000   -9.900      63        0.00    0.000    0.000     615.5    615.5    1.28   333.4     638.3     497.9     487.7     368.3     383.8     293.6    0.000     0.000     0.000     0.000     0.000    1.28     0.00    0.00      0   -9.90   -9.00       14.1       20.7       21.8       22.6       22.3       22.7       25.3       38.7       39.0       39.0       39.0       39.0        0.0        0.0        0.0        0.0        0.0        0.0        0.0        0.0        0.0        0.0        0.0        0.0      6.1       7.4      16.9      22.9      28.8    383.77
    18     6  2007    60     2     613.3     0.5      0.0    0.0    0.5    0.0      0.0      0.0   -9.90      4.5      0.6     14      4.2      2.1    50      8.7     2.7      32     13.8    1.29    100     50     20      0      0    40.9    40.9      0     0.45      4.2      2.1      2.1    50    30.5     5.077    -9.9    0.000   -9.900      62        0.00    0.000    0.000     613.3    613.3    1.29   336.8     645.5     503.5     503.5     381.1     395.7     296.9    0.000     0.000     0.000     0.000     0.000    1.29     0.00    0.00      0   -9.90   -9.00       14.0       20.7       21.8       22.6       22.3       22.7       23.9       38.7       39.0       39.0       39.0       39.0        0.0        0.0        0.0        0.0        0.0        0.0        0.0        0.0        0.0        0.0        0.0        0.0      0.5       9.2      16.2      22.8      29.4    383.77
    19     6  2007    61     2     611.3     0.5      0.0    0.0    0.5    0.0      0.0      0.0   -9.90      4.4      0.6     14      3.7      1.9    51      8.1     2.5      31     14.1    1.31    100     49     19      0      0    39.2    39.2      0     0.42      3.7      1.9      1.9    51    30.5     5.143    -9.9    0.000   -9.900      61        0.00    0.000    0.000     611.3    611.3    1.31   340.3     652.6     509.0     508.9     382.8     398.0     300.2    0.000     0.000     0.000     0.000     0.000    1.31     0.00    0.00      0   -9.90   -9.00       13.8       20.7       21.8       22.6       22.3       22.7       22.6       38.6       39.0       39.0       39.0       39.0        0.0        0.0        0.0        0.0        0.0        0.0        0.0        0.0        0.0        0.0        0.0        0.0      0.5       8.7      17.7      23.1      28.6    383.77
    20     6  2007    62     2     609.6     0.0      0.0    0.0    0.0    0.0      0.0      0.0   -9.90      4.3      0.1      3      3.0      1.6    52      7.4     1.7      24     11.0    1.32    100     48     19      0      0    37.4    37.4      4     0.39      3.0      1.6      1.6    52    30.5     5.202    -9.9    0.000   -9.900      60        0.00    0.000    0.000     609.6    609.6    1.32   344.1     659.7     514.6     510.5     384.5     400.2     303.5    0.000     0.000     0.000     0.000     0.000    1.32     0.00    0.00      0   -9.90   -9.00       13.7       20.7       21.8       22.6       22.3       22.7       22.6       37.8       39.0       39.0       39.0       39.0        0.0        0.0        0.0        0.0        0.0        0.0        0.0        0.0        0.0        0.0        0.0        0.0      0.0       8.2      15.2      20.0      24.9    383.77
    21     6  2007    63     2     607.9     0.0      0.0    0.0    0.0    0.0      0.0      0.0   -9.90      4.9      0.2      3      3.0      1.5    50      7.9     1.7      21     11.5    1.33    100     50     20      0      0    35.2    35.2      3     0.35      3.0      1.5      1.5    50    30.5     5.253    -9.9    0.000   -9.900      59        0.00    0.000    0.000     607.9    607.9    1.33   348.0     666.8     520.1     520.1     392.1     407.5     306.7    0.000     0.000     0.000     0.000     0.000    1.33     0.00    0.00      0   -9.90   -9.00       13.5       20.7       21.8       22.6       22.3       22.7       22.6       37.1       39.0       39.0       39.0       39.0        0.0        0.0        0.0        0.0        0.0        0.0        0.0        0.0        0.0        0.0        0.0        0.0      0.0       8.9      14.0      20.5      27.0    383.77
    22     6  2007    64     3     606.5     0.1      0.0    0.0    0.1    0.0      0.0      0.0   -9.90      4.5      0.2      5      2.4      1.3    54      6.9     1.5      22     14.1    1.35    100     46     18      0      0    33.0    33.0      0     0.31      2.4      1.3      1.3    54    30.5     5.304    -9.9    0.000   -9.900      58        0.00    0.000    0.000     606.5    606.5    1.35   352.0     673.8     525.6     517.3     390.3     406.5     310.0    0.000     0.000     0.000     0.000     0.000    1.35     0.00    0.00      0   -9.90   -9.00       13.4       20.7       21.8       22.6       22.3       22.7       22.6       36.4       39.0       39.0       39.0       39.0        0.0        0.0        0.0        0.0        0.0        0.0        0.0        0.0        0.0        0.0        0.0        0.0      0.1       7.7      16.2      23.1      30.0    383.77
    23     6  2007    65     3     605.3     1.2      0.0    0.0    1.2    0.0      0.0      0.0   -9.90      4.4      1.3     30      1.9      1.1    56      6.3     2.4      38     13.3    1.36    100     44     15      0      0    30.6    30.6      0     0.27      1.9      1.1      1.1    56    30.5     5.350    -9.9    0.000   -9.900      57        0.00    0.000    0.000     605.3    605.3    1.36   356.4     680.9     531.1     518.6     391.9     408.6     313.2    0.000     0.000     0.000     0.000     0.000    1.36     0.00    0.00      0   -9.90   -9.00       13.3       20.7       21.8       22.6       22.3       22.7       22.6       35.9       39.0       39.0       39.0       39.0        0.0        0.0        0.0        0.0        0.0        0.0        0.0        0.0        0.0        0.0        0.0        0.0      1.2       7.2      14.9      22.3      29.7    383.77
    24     6  2007    66     3     604.1     0.0      0.0    0.0    0.0    0.0      0.0      0.0   -9.90      5.4      0.2      3      1.8      1.0    53      7.2     1.1      16     11.6    1.38    100     47     18      0      0    27.8    27.8      3     0.22      1.8      1.0      1.0    53    30.5     5.386    -9.9    0.000   -9.900      56        0.00    0.000    0.000     604.1    604.1    1.38   360.8     688.0     536.6     533.2     401.5     417.7     316.5    0.000     0.000     0.000     0.000     0.000    1.38     0.00    0.00      0   -9.90   -9.00       13.1       20.7       21.8       22.6       22.3       22.7       22.6       35.4       39.0       39.0       39.0       39.0        0.0        0.0        0.0        0.0        0.0        0.0        0.0        0.0        0.0        0.0        0.0        0.0      0.0       8.3      14.5      20.6      26.6    383.77
    25     6  2007    67     3     603.2     0.0      0.0    0.0    0.0    0.0      0.0      0.0   -9.90      4.6      0.1      3      1.2      0.7    60      5.9     0.9      15     12.7    1.39    100     40     14      0      0    25.1    25.1      0     0.18      1.2      0.7      0.7    60    30.5     5.419     1.5    0.084   -9.900      55        0.04    0.000    0.000     603.2    603.2    1.39   365.3     695.0     542.1     525.2     397.4     414.7     319.7    0.000     0.000     0.000     0.000     0.000    1.39     0.00    0.00      0   -9.90   -9.00       12.9       20.7       21.8       22.6       22.3       22.7       22.6       35.1       39.0       39.0       39.0       39.0        0.0        0.0        0.0        0.0        0.0        0.0        0.0        0.0        0.0        0.0        0.0        0.0      0.0       6.7      15.0      21.7      28.4    383.77
    26     6  2007    68     3     602.3     0.1      0.0    0.0    0.1    0.0      0.0      0.0   -9.90      7.5      0.3      4      1.4      0.7    50      8.9     1.0      11     14.5    1.40    100     50     21      0      0    21.4    21.4      0     0.14      1.4      0.7      0.7    50    30.5     5.440     1.8    0.096   -9.900      53        0.04    0.000    0.000     602.3    602.3    1.40   369.9     702.1     547.6     547.6     419.1     434.5     322.9    0.000     0.000     0.000     0.000     0.000    1.40     0.00    0.00      0   -9.90   -9.00       12.7       20.7       21.8       22.6       22.3       22.7       22.6       34.7       39.0       39.0       39.0       39.0        0.0        0.0        0.0        0.0        0.0        0.0        0.0        0.0        0.0        0.0        0.0        0.0      0.1      10.1      17.0      26.4      35.7    383.77
    27     6  2007    69     3     601.8     1.1      0.0    0.0    1.1    0.0      0.0      0.0   -9.90      5.2      1.2     24      0.7      0.4    62      5.9     1.6      28     12.2    1.42    100     38     12      0      0    18.3    18.3      0     0.10      0.7      0.4      0.4    62    30.5     5.460     2.0    0.111   -9.900      52        0.05    0.000    0.000     601.8    601.8    1.42   374.8     708.9     553.0     534.9     404.8     422.6     326.1    0.000     0.000     0.000     0.000     0.000    1.42     0.00    0.00      0   -9.90   -9.00       12.6       20.7       21.8       22.6       22.3       22.7       22.6       34.5       39.0       39.0       39.0       39.0        0.0        0.0        0.0        0.0        0.0        0.0        0.0        0.0        0.0        0.0        0.0        0.0      1.1       6.6      16.7      21.2      25.8    383.77
    28     6  2007    70     3     601.4     3.2      0.0    0.0    3.2    0.0      0.0      0.0   -9.90      5.1      3.3     64      0.4      0.3    66      5.5     3.5      64     10.8    1.43    100     34      9      0      0    15.5    15.5      4     0.07      0.4      0.3      0.3    66    30.5     5.474     2.3    0.127   -9.900      51        0.05    0.000    0.000     601.4    601.4    1.43   379.9     716.0     558.5     536.8     406.7     425.0     329.4    0.000     0.000     0.000     0.000     0.000    1.43     0.00    0.00      0   -9.90   -9.00       12.5       20.7       21.8       22.6       22.3       22.7       22.6       34.4       39.0       39.0       39.0       39.0        0.0        0.0        0.0        0.0        0.0        0.0        0.0        0.0        0.0        0.0        0.0        0.0      3.2       6.2      15.0      19.8      24.6    383.77
    29     6  2007    71     3     601.1     0.4      0.0    0.0    0.4    0.0      0.0      0.0   -9.90      5.6      0.6     10      0.3      0.2    64      5.9     0.7      12      9.4    1.45    100     36     11      0      0    12.0    12.0     10     0.05      0.3      0.2      0.2    64    30.5     5.482     2.7    0.146   -9.900      50        0.06    0.000    0.000     601.1    601.1    1.45   385.1     723.1     564.0     548.1     414.5     432.4     332.6    0.000     0.000     0.000     0.000     0.000    1.45     0.00    0.00      0   -9.90   -9.00       12.4       20.7       21.8       22.6       22.3       22.7       22.6       34.3       39.0       39.0       39.0       39.0        0.0        0.0        0.0        0.0        0.0        0.0        0.0        0.0        0.0        0.0        0.0        0.0      0.4       6.9      13.2      18.4      23.7    383.77
    30     6  2007    72     3     600.8     0.0      0.0    0.0    0.0    0.0      0.0      0.0   -9.90      6.3      0.2      3      0.1      0.1    63      6.4     0.3       4      9.1    1.46    100     37     12      0      0     7.9     7.9     12     0.02      0.1      0.1      0.1    63    30.5     5.485     3.0    0.167   -9.900      49        0.07    0.000    0.000     600.8    600.8    1.46   390.3     730.1     569.5     560.5     422.9     440.5     335.8    0.000     0.000     0.000     0.000     0.000    1.46     0.00    0.00      0   -9.90   -9.00       12.2       20.7       21.8       22.6       22.3       22.7       22.6       34.2       39.0       39.0       39.0       39.0        0.0        0.0        0.0        0.0        0.0        0.0        0.0        0.0        0.0        0.0        0.0        0.0      0.0       7.7      11.6      18.1      24.6    383.77
     1     7  2007    73     3     600.6     0.0      0.0    0.0    0.0    0.0      0.0      0.0   -9.90      7.8      0.2      3      0.0      0.0    58      7.9     0.2       3     11.6    1.47    100     42     15      0      0     2.9     2.9      3     0.00      0.0      0.0      0.0    58    30.5     5.486     3.0    0.167   -9.900      48        0.07    0.000    0.000     600.6    600.6    1.47   395.5     737.1     574.9     574.9     437.3     453.8     339.0    0.000     0.000     0.000     0.000     0.000    1.47     0.00    0.00      0   -9.90   -9.00       12.0       20.7       21.8       22.6       22.3       22.7       22.6       34.2       39.0       39.0       39.0       39.0        0.0        0.0        0.0        0.0        0.0        0.0        0.0        0.0        0.0        0.0        0.0        0.0      0.0       9.6      13.4      20.6      27.9    383.77
     2     7  2007    74     3     600.3     0.0      0.0    0.0    0.0    0.0      0.0      0.0   -9.90      9.2      0.3      3      0.0      0.0   100      9.2     0.3       3     14.1    1.49     -9     -9     18      0     -9     0.0     0.0      0    -9.00      0.0      0.0      0.0   100    30.5     5.486     3.0    0.167   -9.900      47        0.07    0.000    0.000     600.3    600.3    1.49   400.6     744.0     580.3     580.3     450.7     466.3     342.2    0.000     0.000     0.000     0.000     0.000    1.49     0.00    0.00      0   -9.90   -9.00       11.7       20.7       21.8       22.6       22.3       22.7       22.6       34.2       39.0       39.0       39.0       39.0        0.0        0.0        0.0        0.0        0.0        0.0        0.0        0.0        0.0        0.0        0.0        0.0      0.0      11.3      16.2      23.3      30.4    383.77
     3     7  2007    75    -9     600.1     0.0      0.0    0.0    0.0    0.0      0.0      0.0   -9.90      9.9      0.3      3      0.0      0.0   100      9.9     0.3       3     15.4    1.49     -9     -9     18      0     -9     0.0     0.0      0    -9.00      0.0      0.0      0.0   100    30.5     5.486     3.0    0.167   -9.900      46        0.07    0.000    0.000     600.1    600.1    1.49   400.3     744.0     580.3     580.3     455.1     466.3     342.2    0.000     0.000     0.000     0.000     0.000    1.49     0.00    0.00      0   -9.90   -9.00       11.5       20.6       21.8       22.6       22.3       22.7       22.6       34.2       39.0       39.0       39.0       39.0        0.0        0.0        0.0        0.0        0.0        0.0        0.0        0.0        0.0        0.0        0.0        0.0      0.0      12.1      18.8      26.0      33.2    383.77
     4     7  2007    76    -9     599.8     0.0      0.0    0.0    0.0    0.0      0.0      0.0   -9.90      7.7      0.2      3      0.0      0.0   100      7.7     0.2       3     15.4    1.49     -9     -9     18      0     -9     0.0     0.0      0    -9.00      0.0      0.0      0.0   100    30.5     5.486     3.0    0.167   -9.900      45        0.07    0.000    0.000     599.8    599.8    1.49   400.1     744.0     580.3     580.3     440.8     466.3     342.2    0.000     0.000     0.000     0.000     0.000    1.49     0.00    0.00      0   -9.90   -9.00       11.5       20.4       21.8       22.6       22.3       22.7       22.6       34.2       39.0       39.0       39.0       39.0        0.0        0.0        0.0        0.0        0.0        0.0        0.0        0.0        0.0        0.0        0.0        0.0      0.0       9.5      18.7      24.6      30.5    383.77
     5     7  2007    77    -9     610.7    14.6      0.0    0.0   14.6    0.0      0.0      0.0   -9.90      3.8      3.8    100      0.0      0.0   100      3.8     3.8     100      9.9    1.49     -9     -9     18      0     -9     0.0     0.0      0    -9.00      0.0      0.0      0.0   100    30.5     5.486     3.0    0.167   -9.900      44        0.07    0.000    0.000     610.7    610.7    1.49   411.0     744.0     580.3     580.3     413.8     466.3     342.2    0.000     0.000     0.000     0.000     0.000    1.49     0.00    0.00      0   -9.90   -9.00       22.3       20.4       21.8       22.6       22.3       22.7       22.6       34.2       39.0       39.0       39.0       39.0        0.0        0.0        0.0        0.0        0.0        0.0        0.0        0.0        0.0        0.0        0.0        0.0     14.6       4.6      13.5      18.9      24.4    383.77
     6     7  2007    78    -9     610.2     1.6      0.0    0.0    1.6    0.0      0.0      0.0   -9.90      5.5      2.1     37      0.0      0.0   100      5.5     2.1      37      8.9    1.49     -9     -9     18      0     -9     0.0     0.0      0    -9.00      0.0      0.0      0.0   100    30.5     5.486     3.0    0.167   -9.900      44        0.07    0.000    0.000     610.2    610.2    1.49   410.5     744.0     580.3     580.3     425.9     466.3     342.2    0.000     0.000     0.000     0.000     0.000    1.49     0.00    0.00      0   -9.90   -9.00       21.9       20.4       21.8       22.6       22.3       22.7       22.6       34.2       39.0       39.0       39.0       39.0        0.0        0.0        0.0        0.0        0.0        0.0        0.0        0.0        0.0        0.0        0.0        0.0      1.6       6.8      12.8      17.9      22.9    383.77
     7     7  2007    79    -9     609.6     0.0      0.0    0.0    0.0    0.0      0.0      0.0   -9.90      5.9      0.6     11      0.0      0.0   100      5.9     0.6      11     10.6    1.49     -9     -9     18      0     -9     0.0     0.0      0    -9.00      0.0      0.0      0.0   100    30.5     5.486     3.0    0.167   -9.900      43        0.07    0.000    0.000     609.6    609.6    1.49   409.9     744.0     580.3     580.3     428.1     466.3     342.2    0.000     0.000     0.000     0.000     0.000    1.49     0.00    0.00      0   -9.90   -9.00       21.2       20.4       21.8       22.6       22.3       22.7       22.6       34.2       39.0       39.0       39.0       39.0        0.0        0.0        0.0        0.0        0.0        0.0        0.0        0.0        0.0        0.0        0.0        0.0      0.0       7.2      16.6      19.6      22.6    383.77
     8     7  2007    80    -9     608.9     0.0      0.0    0.0    0.0    0.0      0.0      0.0   -9.90      7.3      0.7     10      0.0      0.0   100      7.3     0.7      10     10.6    1.49     -9     -9     18      0     -9     0.0     0.0      0    -9.00      0.0      0.0      0.0   100    30.5     5.486     3.0    0.167   -9.900      42        0.07    0.000    0.000     608.9    608.9    1.49   409.2     744.0     580.3     580.3     437.5     466.3     342.2    0.000     0.000     0.000     0.000     0.000    1.49     0.00    0.00      0   -9.90   -9.00       20.5       20.4       21.8       22.6       22.3       22.7       22.6       34.2       39.0       39.0       39.0       39.0        0.0        0.0        0.0        0.0        0.0        0.0        0.0        0.0        0.0        0.0        0.0        0.0      0.0       8.9      13.6      19.6      25.6    383.77
     9     7  2007    81    -9     608.2     0.0      0.0    0.0    0.0    0.0      0.0      0.0   -9.90      8.2      0.7      9      0.0      0.0   100      8.2     0.7       9     11.5    1.49     -9     -9     18      0     -9     0.0     0.0      0    -9.00      0.0      0.0      0.0   100    30.5     5.486     3.0    0.167   -9.900      41        0.07    0.000    0.000     608.2    608.2    1.49   408.4     744.0     580.3     580.3     444.1     466.3     342.2    0.000     0.000     0.000     0.000     0.000    1.49     0.00    0.00      0   -9.90   -9.00       19.8       20.4       21.8       22.6       22.3       22.7       22.6       34.2       39.0       39.0       39.0       39.0        0.0        0.0        0.0        0.0        0.0        0.0        0.0        0.0        0.0        0.0        0.0        0.0      0.0      10.1      12.9      20.5      28.1    383.77
    10     7  2007    82    -9     607.3     0.0      0.0    0.0    0.0    0.0      0.0      0.0   -9.90     10.8      0.8      8      0.0      0.0   100     10.8     0.8       8     14.2    1.49     -9     -9     18      0     -9     0.0     0.0      0    -9.00      0.0      0.0      0.0   100    30.5     5.486     3.0    0.167   -9.900      41        0.07    0.000    0.000     607.3    607.3    1.49   407.6     744.0     580.3     580.3     461.2     466.3     342.2    0.000     0.000     0.000     0.000     0.000    1.49     0.00    0.00      0   -9.90   -9.00       19.0       20.4       21.8       22.6       22.3       22.7       22.6       34.2       39.0       39.0       39.0       39.0        0.0        0.0        0.0        0.0        0.0        0.0        0.0        0.0        0.0        0.0        0.0        0.0      0.0      13.2      16.5      25.0      33.5    383.77
    11     7  2007    83    -9     612.7    10.0      0.0    0.0   10.0    0.0      0.0      0.0   -9.90      4.6      4.6    100      0.0      0.0   100      4.6     4.6     100     13.4    1.49     -9     -9     18      0     -9     0.0     0.0      0    -9.00      0.0      0.0      0.0   100    30.5     5.486     3.0    0.167   -9.900      40        0.07    0.000    0.000     612.7    612.7    1.49   413.0     744.0     580.3     580.3     419.9     466.3     342.2    0.000     0.000     0.000     0.000     0.000    1.49     0.00    0.00      0   -9.90   -9.00       24.3       20.4       21.8       22.6       22.3       22.7       22.6       34.2       39.0       39.0       39.0       39.0        0.0        0.0        0.0        0.0        0.0        0.0        0.0        0.0        0.0        0.0        0.0        0.0     10.0       5.7      16.8      22.4      28.0    383.77
    12     7  2007    84    -9     614.7     4.1      0.0    0.0    4.1    0.0      0.0      0.0   -9.90      2.1      2.1    100      0.0      0.0   100      2.1     2.1     100      8.2    1.49     -9     -9     18      0     -9     0.0     0.0      0    -9.00      0.0      0.0      0.0   100    30.5     5.486     3.0    0.167   -9.900      39        0.07    0.000    0.000     614.7    614.7    1.49   414.9     744.0     580.3     580.3     402.8     466.3     342.2    0.000     0.000     0.000     0.000     0.000    1.49     0.00    0.00      0   -9.90   -9.00       26.3       20.4       21.8       22.6       22.3       22.7       22.6       34.2       39.0       39.0       39.0       39.0        0.0        0.0        0.0        0.0        0.0        0.0        0.0        0.0        0.0        0.0        0.0        0.0      4.1       2.6      14.0      17.2      20.5    383.77
    13     7  2007    85    -9     612.2     0.0      0.0    0.0    0.0    0.0      0.0      0.0   -9.90      4.7      2.4     51      0.0      0.0   100      4.7     2.4      51      9.1    1.49     -9     -9     18      0     -9     0.0     0.0      0    -9.00      0.0      0.0      0.0   100    30.5     5.486     3.0    0.167   -9.900      39        0.07    0.000    0.000     612.2    612.2    1.49   412.5     744.0     580.3     580.3     420.4     466.3     342.2    0.000     0.000     0.000     0.000     0.000    1.49     0.00    0.00      0   -9.90   -9.00       23.9       20.4       21.8       22.6       22.3       22.7       22.6       34.2       39.0       39.0       39.0       39.0        0.0        0.0        0.0        0.0        0.0        0.0        0.0        0.0        0.0        0.0        0.0        0.0      0.0       5.8      14.3      18.1      22.0    383.77
    14     7  2007    86    -9     611.5     0.0      0.0    0.0    0.0    0.0      0.0      0.0   -9.90      5.1      0.7     15      0.0      0.0   100      5.1     0.7      15      9.9    1.49     -9     -9     18      0     -9     0.0     0.0      0    -9.00      0.0      0.0      0.0   100    30.5     5.486     3.0    0.167   -9.900      38        0.07    0.000    0.000     611.5    611.5    1.49   411.8     744.0     580.3     580.3     422.6     466.3     342.2    0.000     0.000     0.000     0.000     0.000    1.49     0.00    0.00      0   -9.90   -9.00       23.1       20.4       21.8       22.6       22.3       22.7       22.6       34.2       39.0       39.0       39.0       39.0        0.0        0.0        0.0        0.0        0.0        0.0        0.0        0.0        0.0        0.0        0.0        0.0      0.0       6.2      13.3      18.9      24.4    383.77
    15     7  2007    87    -9     610.7     0.0      0.0    0.0    0.0    0.0      0.0      0.0   -9.90      5.8      0.8     13      0.0      0.0   100      5.8     0.8      13     12.7    1.49     -9     -9     18      0     -9     0.0     0.0      0    -9.00      0.0      0.0      0.0   100    30.5     5.486     3.0    0.167   -9.900      38        0.07    0.000    0.000     610.7    610.7    1.49   411.0     744.0     580.3     580.3     427.6     466.3     342.2    0.000     0.000     0.000     0.000     0.000    1.49     0.00    0.00      0   -9.90   -9.00       22.4       20.4       21.8       22.6       22.3       22.7       22.6       34.2       39.0       39.0       39.0       39.0        0.0        0.0        0.0        0.0        0.0        0.0        0.0        0.0        0.0        0.0        0.0        0.0      0.0       7.1      16.3      21.7      27.1    383.77
[...]
    22     7  2021    94     4     622.6     1.3      0.0    0.0    1.3    0.0      0.0      0.0   -9.90      0.2      0.2    100      0.8      0.8   100      1.0     1.0     100      9.4    1.78     -9      0      0      0      0    70.0    70.0     10     0.77      0.8      0.8      0.8   100    31.6    12.346    16.9    2.087   -9.900      99        0.65    0.000    0.000     622.6    622.6    1.78   535.6     888.5     693.0     611.4     471.2     471.2     408.7    0.000     0.000     0.000     0.000     0.000    1.78     0.00    0.00      0   -9.90   -9.00       33.0       24.7       22.9       21.6       22.3       22.9       22.9       33.0       38.2       39.0       39.0       39.0        0.0        0.0        0.0        0.0        0.0        0.0        0.0        0.0        0.0        0.0        0.0        0.0      1.3       1.1      17.2      18.4      19.6    414.00
    23     7  2021    95     4     622.1     2.8      0.0    0.0    2.8    0.0      0.0      0.0   -9.90      0.7      0.7    100      2.6      2.6   100      3.3     3.3     100     11.0    1.79     -9      0      0      0      0    70.0    70.0      4     0.77      2.6      2.6      2.6   100    31.6    12.581    17.6    2.210   -9.900      99        0.68    0.000    0.000     622.1    622.1    1.79   540.3     895.1     698.2     641.9     490.6     490.6     411.8    0.000     0.000     0.000     0.000     0.000    1.79     0.00    0.00      0   -9.90   -9.00       32.5       24.7       22.9       21.6       22.3       22.9       22.9       33.0       38.2       39.0       39.0       39.0        0.0        0.0        0.0        0.0        0.0        0.0        0.0        0.0        0.0        0.0        0.0        0.0      2.8       3.5      15.3      20.0      24.7    414.00
    24     7  2021    96     4     614.7     0.0      0.0    0.0    0.0    0.0      0.0      0.0   -9.90      1.5      1.5    100      5.8      5.8   100      7.4     7.4     100     13.1    1.80     -9      0      0      0      0    70.0    70.0      0     0.77      5.8      5.8      5.8   100    31.6    12.824    18.2    2.337   -9.900      99        0.71    0.000    0.000     614.7    614.7    1.80   538.1     901.8     703.4     691.3     521.7     521.7     414.8    0.000     0.000     0.000     0.000     0.000    1.80     0.00    0.00      0   -9.90   -9.00       25.7       24.1       22.9       21.6       22.3       22.9       22.9       33.0       38.2       39.0       39.0       39.0        0.0        0.0        0.0        0.0        0.0        0.0        0.0        0.0        0.0        0.0        0.0        0.0      0.0       7.6      14.2      23.9      33.6    414.00
    25     7  2021    97     4     606.9     0.0      0.0    0.0    0.0    0.0      0.0      0.0   -9.90      1.8      0.9     47      6.9      6.9   100      8.7     7.8      89     15.6    1.82     -9      0      0      0      0    70.0    70.0      0     0.77      6.9      6.9      6.9   100    31.6    13.066    18.9    2.468   -9.900      99        0.73    0.000    0.000     606.9    606.9    1.82   535.5     908.5     708.6     708.6     534.9     534.9     417.9    0.000     0.000     0.000     0.000     0.000    1.82     0.00    0.00      0   -9.90   -9.00       20.5       21.5       22.9       21.6       22.3       22.9       22.9       33.0       38.2       39.0       39.0       39.0        0.0        0.0        0.0        0.0        0.0        0.0        0.0        0.0        0.0        0.0        0.0        0.0      0.0       9.0      19.3      25.7      32.1    414.00
    26     7  2021    98     4     607.9     7.8      0.0    0.0    7.8    0.0      0.0      0.0   -9.90      1.4      1.4    100      5.4      5.4   100      6.9     6.9     100     15.4    1.83     -9      0      0      0      0    70.0    70.0      0     0.77      5.4      5.4      5.4   100    31.6    13.308    19.6    2.602   -9.900      99        0.75    0.000    0.000     607.9    607.9    1.83   541.7     915.1     713.8     695.9     526.0     526.0     421.0    0.000     0.000     0.000     0.000     0.000    1.83     0.00    0.00      0   -9.90   -9.00       21.7       21.5       22.9       21.6       22.3       22.9       22.9       32.9       38.2       39.0       39.0       39.0        0.0        0.0        0.0        0.0        0.0        0.0        0.0        0.0        0.0        0.0        0.0        0.0      7.8       7.1      18.7      25.2      31.8    414.00
    27     7  2021    99     4     600.3     0.0      0.0    0.0    0.0    0.0      0.0      0.0   -9.90      1.6      1.6    100      5.9      5.9   100      7.6     7.6     100     10.9    1.84     -9      0      0      0      0    70.0    70.0      4     0.76      5.9      5.9      5.9   100    31.6    13.540    20.2    2.737   -9.900      99        0.77    0.000    0.000     600.3    600.3    1.84   539.2     921.7     719.0     712.1     536.6     536.6     424.0    0.000     0.000     0.000     0.000     0.000    1.84     0.00    0.00      0   -9.90   -9.00       20.1       21.5       22.9       21.6       22.3       22.9       22.9       30.2       37.9       39.0       39.0       39.0        0.0        0.0        0.0        0.0        0.0        0.0        0.0        0.0        0.0        0.0        0.0        0.0      0.0       8.1      14.6      19.9      25.3    414.00
    28     7  2021   100     4     595.1     0.9      0.0    0.0    0.9    0.0      0.0      0.0   -9.90      1.4      1.0     66      5.1      5.1   100      6.6     6.1      93     11.5    1.86     -9      0     -9      0      0    69.5    69.5      3     0.75      5.1      5.1      5.1   100    31.6    13.772    20.9    2.875   -9.900      99        0.80    0.000    0.000     595.1    595.1    1.86   539.2     928.3     724.1     704.9     532.9     532.9     427.0    0.000     0.000     0.000     0.000     0.000    1.86     0.00    0.00      0   -9.90   -9.00       20.0       21.5       22.9       21.6       22.3       22.9       22.9       27.7       37.9       39.0       39.0       39.0        0.0        0.0        0.0        0.0        0.0        0.0        0.0        0.0        0.0        0.0        0.0        0.0      0.9       7.0      13.3      20.5      27.7    414.00
    29     7  2021   101     4     590.0     0.1      0.0    0.0    0.1    0.0      0.0      0.0   -9.90      1.4      0.2     16      5.0      5.0   100      6.4     5.2      82     12.5    1.87     -9      0     -9      0      0    69.0    69.0      0     0.74      5.0      5.0      5.0   100    31.6    14.006    21.5    3.017   -9.900      99        0.83    0.000    0.000     590.0    590.0    1.87   539.3     934.9     729.2     706.5     534.6     534.6     430.1    0.000     0.000     0.000     0.000     0.000    1.87     0.00    0.00      0   -9.90   -9.00       19.9       21.5       22.9       21.6       22.3       22.9       22.9       25.2       37.9       39.0       39.0       39.0        0.0        0.0        0.0        0.0        0.0        0.0        0.0        0.0        0.0        0.0        0.0        0.0      0.1       6.7      15.8      21.5      27.1    414.00
    30     7  2021   102     4     584.4     0.0      0.0    0.0    0.0    0.0      0.0      0.0   -9.90      1.6      0.1      9      5.5      5.5   100      7.1     5.6      80     13.9    1.88     -9      0     -9      0      0    68.3    68.3      0     0.73      5.5      5.5      5.5   100    31.6    14.237    22.2    3.161   -9.900      99        0.85    0.000    0.000     584.4    584.4    1.88   538.8     941.5     734.4     720.6     543.9     543.9     433.1    0.000     0.000     0.000     0.000     0.000    1.88     0.00    0.00      0   -9.90   -9.00       19.7       21.5       22.9       21.6       22.3       22.9       22.9       22.7       37.6       39.0       39.0       39.0        0.0        0.0        0.0        0.0        0.0        0.0        0.0        0.0        0.0        0.0        0.0        0.0      0.0       7.5      16.6      22.9      29.2    414.00
    31     7  2021   103     4     580.8     2.2      0.0    0.0    2.2    0.0      0.0      0.0   -9.90      1.4      1.4    100      4.5      4.5   100      5.9     5.9     100     13.6    1.90     -9      0     -9      0      0    67.6    67.6      0     0.71      4.5      4.5      4.5   100    31.6    14.463    22.9    3.307   -9.900      99        0.88    0.000    0.000     580.8    580.8    1.90   540.2     948.1     739.5     711.9     539.3     539.3     436.1    0.000     0.000     0.000     0.000     0.000    1.90     0.00    0.00      0   -9.90   -9.00       20.6       21.5       22.9       21.6       22.3       22.9       22.9       22.7       35.4       39.0       39.0       39.0        0.0        0.0        0.0        0.0        0.0        0.0        0.0        0.0        0.0        0.0        0.0        0.0      2.2       6.3      17.1      22.6      28.1    414.00
     1     8  2021   104     4     580.5     4.4      0.0    0.0    4.4    0.0      0.0      0.0   -9.90      1.1      1.1    100      3.6      3.6   100      4.7     4.7     100     13.3    1.91     -9      0     -9      0      0    66.8    66.8      0     0.70      3.6      3.6      3.6   100    31.6    14.684    23.5    3.455   -9.900      99        0.91    0.000    0.000     580.5    580.5    1.91   545.0     954.6     744.6     703.0     534.5     534.5     439.1    0.000     0.000     0.000     0.000     0.000    1.91     0.00    0.00      0   -9.90   -9.00       20.5       21.5       22.9       21.6       22.3       22.9       22.9       22.7       35.3       39.0       39.0       39.0        0.0        0.0        0.0        0.0        0.0        0.0        0.0        0.0        0.0        0.0        0.0        0.0      4.4       5.1      17.6      22.3      27.0    414.00
     2     8  2021   105     4     576.5     0.2      0.0    0.0    0.2    0.0      0.0      0.0   -9.90      1.3      0.3     24      3.9      3.9   100      5.2     4.2      81     11.9    1.92     -9      0     -9      0      0    65.9    65.9      2     0.68      3.9      3.9      3.9   100    31.6    14.895    24.2    3.603   -9.900      99        0.94    0.000    0.000     576.5    576.5    1.92   546.2     961.1     749.7     715.9     543.2     543.2     442.1    0.000     0.000     0.000     0.000     0.000    1.92     0.00    0.00      0   -9.90   -9.00       20.4       21.5       22.9       21.6       22.3       22.9       22.9       22.7       33.3       39.0       39.0       39.0        0.0        0.0        0.0        0.0        0.0        0.0        0.0        0.0        0.0        0.0        0.0        0.0      0.2       5.8      15.9      20.9      26.0    414.00
     3     8  2021   106     4     572.1     0.0      0.0    0.0    0.0    0.0      0.0      0.0   -9.90      1.5      0.1     10      4.3      4.3    99      5.8     4.4      76     12.1    1.94     -9      1     -9      0      0    64.8    64.8      0     0.66      4.3      4.3      4.3    99    31.6    15.103    24.9    3.753   -9.900      99        0.96    0.000    0.000     572.1    572.1    1.94   546.8     967.6     754.8     728.9     551.9     551.9     445.1    0.000     0.000     0.000     0.000     0.000    1.94     0.00    0.00      0   -9.90   -9.00       20.2       21.5       22.9       21.6       22.3       22.9       22.9       22.7       31.2       39.0       39.0       39.0        0.0        0.0        0.0        0.0        0.0        0.0        0.0        0.0        0.0        0.0        0.0        0.0      0.0       6.5      14.8      21.1      27.3    414.00
     4     8  2021   107     4     567.9     0.0      0.0    0.0    0.0    0.0      0.0      0.0   -9.90      1.6      0.2      9      4.2      4.0    96      5.8     4.2      72     12.5    1.95     -9      4     -9      0      0    63.6    63.6      0     0.64      4.2      4.0      4.0    96    31.6    15.296    25.5    3.903   -9.900      99        0.99    0.000    0.000     567.9    567.9    1.95   547.7     974.1     759.8     735.0     556.3     556.3     448.1    0.000     0.000     0.000     0.000     0.000    1.95     0.00    0.00      0   -9.90   -9.00       20.1       21.5       22.9       21.6       22.3       22.9       22.9       22.7       29.2       39.0       39.0       39.0        0.0        0.0        0.0        0.0        0.0        0.0        0.0        0.0        0.0        0.0        0.0        0.0      0.0       6.6      16.0      21.5      27.0    414.00
     5     8  2021   108     4     567.9     1.6      0.0    0.0    1.6    0.0      0.0      0.0   -9.90      0.6      0.6    100      1.0      1.0   100      1.6     1.6     100      7.1    1.96     -9      0     -9      0      0    62.2    62.2     34     0.62      1.0      1.0      1.0   100    31.6    15.424    26.2    4.037   -9.900      99        1.02    0.000    0.000     567.9    567.9    1.96   552.8     980.6     764.9     690.2     529.5     529.5     451.1    0.000     0.000     0.000     0.000     0.000    1.96     0.00    0.00      0   -9.90   -9.00       21.1       21.5       22.9       21.6       22.3       22.9       22.9       22.7       28.7       39.0       39.0       39.0        0.0        0.0        0.0        0.0        0.0        0.0        0.0        0.0        0.0        0.0        0.0        0.0      1.6       2.4      13.9      16.1      18.2    414.00
     6     8  2021   109     4     567.7     4.3      0.0    0.0    4.3    0.0      0.0      0.0   -9.90      1.4      1.4    100      3.1      3.1   100      4.5     4.5     100     11.1    1.97     -9      0     -9      0      0    60.6    60.6      4     0.59      3.1      3.1      3.1   100    31.6    15.603    26.8    4.188   -9.900      99        1.05    0.000    0.000     567.7    567.7    1.97   557.6     987.1     769.9     731.7     555.6     555.6     454.1    0.000     0.000     0.000     0.000     0.000    1.97     0.00    0.00      0   -9.90   -9.00       20.8       21.5       22.9       21.6       22.3       22.9       22.9       22.7       28.7       39.0       39.0       39.0        0.0        0.0        0.0        0.0        0.0        0.0        0.0        0.0        0.0        0.0        0.0        0.0      4.3       5.5      13.5      20.1      26.7    414.00
     7     8  2021   110     4     573.3     6.9      0.0    0.0    6.9    0.0      0.0      0.0   -9.90      0.5      0.5    100      0.7      0.7   100      1.3     1.3     100      7.1    1.99     -9      0     -9      0      0    58.8    58.8     34     0.56      0.7      0.7      0.7   100    31.6    15.720    27.5    4.323   -9.900      99        1.08    0.000    0.000     573.3    573.3    1.99   568.3     993.5     775.0     694.5     533.5     533.5     457.0    0.000     0.000     0.000     0.000     0.000    1.99     0.00    0.00      0   -9.90   -9.00       26.5       21.5       22.9       21.6       22.3       22.9       22.9       22.7       28.7       39.0       39.0       39.0        0.0        0.0        0.0        0.0        0.0        0.0        0.0        0.0        0.0        0.0        0.0        0.0      6.9       2.0      13.3      16.1      18.9    414.00
     8     8  2021   111     4     576.3     6.5      0.0    0.0    6.5    0.0      0.0      0.0   -9.90      1.2      1.2    100      2.3      2.3   100      3.4     3.4     100     14.0    2.00     -9      0     -9      0      0    56.8    56.8      0     0.52      2.3      2.3      2.3   100    31.6    15.886    28.2    4.474   -9.900      99        1.11    0.000    0.000     576.3    576.3    2.00   576.3    1000.0     780.0     726.8     554.0     554.0     460.0    0.000     0.000     0.000     0.000     0.000    2.00     0.00    0.00      0   -9.90   -9.00       29.5       21.5       22.9       21.6       22.3       22.9       22.9       22.7       28.7       39.0       39.0       39.0        0.0        0.0        0.0        0.0        0.0        0.0        0.0        0.0        0.0        0.0        0.0        0.0      6.5       4.3      17.4      23.0      28.7    414.00
     9     8  2021   112     4     574.4     0.2      0.0    0.0    0.2    0.0      0.0      0.0   -9.90      1.0      0.5     50      1.6      1.6   100      2.6     2.1      81     11.8    2.00     -9      0     -9      0      0    54.5    54.5      2     0.49      1.6      1.6      1.6   100    31.6    16.036    28.8    4.622   -9.900      99        1.14    0.000    0.000     574.4    574.4    2.00   574.4    1000.0     780.0     715.9     547.3     547.3     460.0    0.000     0.000     0.000     0.000     0.000    2.00     0.00    0.00      0   -9.90   -9.00       27.6       21.5       22.9       21.6       22.3       22.9       22.9       22.7       28.7       39.0       39.0       39.0        0.0        0.0        0.0        0.0        0.0        0.0        0.0        0.0        0.0        0.0        0.0        0.0      0.2       3.4      16.2      20.8      25.4    414.00
    10     8  2021   113     4     572.6     0.3      0.0    0.0    0.3    0.0      0.0      0.0   -9.90      1.2      0.5     46      1.6      1.6   100      2.8     2.2      77     10.1    2.00     -9      0     -9      0      0    51.8    51.8      7     0.45      1.6      1.6      1.6   100    31.6    16.167    29.5    4.767   -9.900      99        1.17    0.000    0.000     572.6    572.6    2.00   572.6    1000.0     780.0     721.9     551.0     551.0     460.0    0.000     0.000     0.000     0.000     0.000    2.00     0.00    0.00      0   -9.90   -9.00       25.7       21.5       22.9       21.6       22.3       22.9       22.9       22.7       28.7       39.0       39.0       39.0        0.0        0.0        0.0        0.0        0.0        0.0        0.0        0.0        0.0        0.0        0.0        0.0      0.3       3.9      15.4      19.1      22.7    414.00
    11     8  2021   114     4     569.4     0.0      0.0    0.0    0.0    0.0      0.0      0.0   -9.90      2.2      0.5     21      2.7      2.7    98      5.0     3.1      63     10.9    2.00     -9      2     -9      0      0    48.8    48.8      4     0.40      2.7      2.7      2.7    98    31.6    16.286    30.2    4.910   -9.900      99        1.19    0.000    0.000     569.4    569.4    2.00   569.4    1000.0     780.0     760.5     574.7     574.7     460.0    0.000     0.000     0.000     0.000     0.000    2.00     0.00    0.00      0   -9.90   -9.00       22.6       21.5       22.9       21.6       22.3       22.9       22.9       22.7       28.7       39.0       39.0       39.0        0.0        0.0        0.0        0.0        0.0        0.0        0.0        0.0        0.0        0.0        0.0        0.0      0.0       7.1      13.8      19.9      25.9    414.00
    12     8  2021   115     4     567.0     0.0      0.0    0.0    0.0    0.0      0.0      0.0   -9.90      2.2      0.3     14      2.2      2.2    98      4.5     2.5      56     10.6    2.00     -9      2     -9      0      0    45.4    45.4      5     0.35      2.2      2.2      2.2    98    31.6    16.389    30.2    4.941   -9.900      99        1.19    0.000    0.000     567.0    567.0    2.00   566.9    1000.0     780.0     755.7     571.8     571.8     460.0    0.000     0.000     0.000     0.000     0.000    2.00     0.00    0.00      0   -9.90   -9.00       22.3       21.5       22.9       21.6       22.3       22.9       22.9       22.7       27.6       39.0       39.0       39.0        0.0        0.0        0.0        0.0        0.0        0.0        0.0        0.0        0.0        0.0        0.0        0.0      0.0       6.7      12.6      19.6      26.6    414.00
