AquaCrop 7.0 (August 2022) - Output created on (date) : 13-10-2022   at (time) : 17:26:08

   Day Month  Year   DAP Stage   WC(1.20)   Rain     Irri   Surf   Infilt   RO    Drain       CR    Zgwt       Ex       E     E/Ex     Trx       Tr  Tr/Trx    ETx      ET  ET/ETx      GD       Z     StExp  StSto  StSen StSalt StWeed   CC      CCw     StTr  Kc(Tr)     Trx       Tr      TrW  Tr/Trx   WP    Biomass     HI    Y(dry)  Y(fresh)  Brelative    WPet      Bin     Bout  WC(1.20) Wr(1.00)     Z       Wr    Wr(SAT)    Wr(FC)   Wr(exp)   Wr(sto)   Wr(sen)   Wr(PWP)    SaltIn    SaltOut   SaltUp   Salt(1.20)  SaltZ     Z       ECe    ECsw   StSalt  Zgwt    ECgw       WC01       WC 2       WC 3       WC 4       WC 5       WC 6       WC 7       WC 8       WC 9       WC10       WC11       WC12      ECe01      ECe 2      ECe 3      ECe 4      ECe 5      ECe 6      ECe 7      ECe 8      ECe 9      ECe10      ECe11      ECe12     Rain       ETo      Tmin      Tavg      Tmax      CO2
                                      mm      mm       mm     mm     mm     mm       mm       mm      m        mm       mm     %        mm       mm    %        mm      mm       %  degC-day     m       %      %      %      %      %      %       %       %       -        mm       mm       mm    %     g/m2    ton/ha      %    ton/ha   ton/ha       %       kg/m3   ton/ha   ton/ha      mm       mm       m       mm        mm        mm        mm        mm        mm         mm    ton/ha    ton/ha    ton/ha    ton/ha    ton/ha     m      dS/m    dS/m      %     m      dS/m       0.05       0.15       0.25       0.35       0.45       0.55       0.65       0.75       0.85       0.95       1.05       1.15       0.05       0.15       0.25       0.35       0.45       0.55       0.65       0.75       0.85       0.95       1.05       1.15       mm        mm     degC      degC      degC       ppm
    20     4  2008     1     1     464.8     0.6      0.0    0.0    0.6    0.0      0.0      0.0   -9.90      4.4      3.8     87      0.0      0.0   100      4.4     3.8      87      8.7    0.30     -9     -9     -9      0     -9     0.0     0.0      0    -9.00      0.0      0.0      0.0   100     0.0     0.000    -9.9    0.000    0.000      -9        0.00    0.000    0.000     464.8    386.8    0.30   113.8     150.0     117.0     105.0      91.6      76.2      69.0    0.000     0.000     0.000     0.000     0.000    0.30     0.00    0.00      0   -9.90   -9.00       35.8       39.0       39.0       39.0       39.0       39.0       39.0       39.0       39.0       39.0       39.0       39.0        0.0        0.0        0.0        0.0        0.0        0.0        0.0        0.0        0.0        0.0        0.0        0.0      0.6       4.0       9.9      14.2      18.5    385.59
    21     4  2008     2     1     461.8     0.0      0.0    0.0    0.0    0.0      0.0      0.0   -9.90      4.6      2.9     63      0.0      0.0   100      4.6     2.9      63      6.5    0.30     -9     -9     -9      0     -9     0.0     0.0      0    -9.00      0.0      0.0      0.0   100     0.0     0.000    -9.9    0.000    0.000      -9        0.00    0.000    0.000     461.8    383.8    0.30   110.8     150.0     117.0     105.0      91.9      76.2      69.0    0.000     0.000     0.000     0.000     0.000    0.30     0.00    0.00      0   -9.90   -9.00       32.8       39.0       39.0       39.0       39.0       39.0       39.0       39.0       39.0       39.0       39.0       39.0        0.0        0.0        0.0        0.0        0.0        0.0        0.0        0.0        0.0        0.0        0.0        0.0      0.0       4.2       6.7      12.0      17.4    385.59
    22     4  2008     3     1     464.3     5.7      0.0    0.0    5.7    0.0      0.0      0.0   -9.90      3.2      3.2    100      0.0      0.0   100      3.2     3.2     100      6.3    0.30     -9     -9     -9      0     -9     0.0     0.0      0    -9.00      0.0      0.0      0.0   100     0.0     0.000    -9.9    0.000    0.000      -9        0.00    0.000    0.000     464.3    386.3    0.30   113.3     150.0     117.0     105.0      90.0      76.2      69.0    0.000     0.000     0.000     0.000     0.000    0.30     0.00    0.00      0   -9.90   -9.00       35.3       39.0       39.0       39.0       39.0       39.0       39.0       39.0       39.0       39.0       39.0       39.0        0.0        0.0        0.0        0.0        0.0        0.0        0.0        0.0        0.0        0.0        0.0        0.0      5.7       2.9       8.6      11.8      15.1    385.59
    23     4  2008     4     1     481.2    23.3      0.0    0.0   18.1    5.2      0.0      0.0   -9.90      1.2      1.2    100      0.0      0.0   100      1.2     1.2     100      3.1    0.30     -9     -9     -9      0     -9     0.0     0.0      0    -9.00      0.0      0.0      0.0   100     0.0     0.000    -9.9    0.000    0.000      -9        0.00    0.000    0.000     481.2    403.2    0.30   130.2     150.0     117.0     105.0      87.5      76.2      69.0    0.000     0.000     0.000     0.000     0.000    0.30     0.00    0.00      0   -9.90   -9.00       48.8       42.4       39.0       39.0       39.0       39.0       39.0       39.0       39.0       39.0       39.0       39.0        0.0        0.0        0.0        0.0        0.0        0.0        0.0        0.0        0.0        0.0        0.0        0.0     23.3       1.1       5.7       8.6      11.5    385.59
    24     4  2008     5     1     476.7     0.0      0.0    0.0    0.0    0.0      0.1      0.0   -9.90      4.4      4.4    100      0.0      0.0   100      4.4     4.4     100      3.9    0.30     -9     -9     -9      0     -9     0.0     0.0      0    -9.00      0.0      0.0      0.0   100     0.0     0.000    -9.9    0.000    0.000      -9        0.00    0.000    0.000     476.7    398.7    0.30   124.5     150.0     117.0     105.0      91.6      76.2      69.0    0.000     0.000     0.000     0.000     0.000    0.30     0.00    0.00      0   -9.90   -9.00       40.2       43.4       40.9       39.6       39.3       39.1       39.1       39.0       39.0       39.0       39.0       39.0        0.0        0.0        0.0        0.0        0.0        0.0        0.0        0.0        0.0        0.0        0.0        0.0      0.0       4.0       4.4       9.4      14.4    385.59
    25     4  2008     6     2     470.8     0.0      0.0    0.0    0.0    0.0      0.5      0.0   -9.90      5.4      5.4    100      0.0      0.0   100      5.4     5.4     100      4.1    0.30     -9      0      0      0      0     1.4     1.4     75     0.03      0.0      0.0      0.0   100    17.7     0.001    -9.9    0.000    0.000     100        0.00    0.000    0.000     470.8    392.7    0.30   118.0     151.8     118.4     106.3      94.1      77.1      69.8    0.000     0.000     0.000     0.000     0.000    0.30     0.00    0.00      0   -9.90   -9.00       34.3       41.6       40.7       40.2       39.7       39.4       39.3       39.2       39.2       39.1       39.1       39.1        0.0        0.0        0.0        0.0        0.0        0.0        0.0        0.0        0.0        0.0        0.0        0.0      0.0       5.0       1.8       9.6      17.4    385.59
    26     4  2008     7     2     464.6     0.0      0.0    0.0    0.0    0.0      1.1      0.0   -9.90      6.6      5.0     75      0.1      0.1   100      6.7     5.1      76      5.8    0.32     -9      0      0      0      0     1.6     1.6     46     0.03      0.1      0.1      0.1   100    17.7     0.004    -9.9    0.000    0.000     100        0.00    0.000    0.000     464.6    386.2    0.32   117.1     159.3     124.3     113.7     100.6      81.9      73.3    0.000     0.000     0.000     0.000     0.000    0.32     0.00    0.00      0   -9.90   -9.00       29.2       40.5       40.0       39.8       39.8       39.6       39.5       39.4       39.3       39.2       39.2       39.2        0.0        0.0        0.0        0.0        0.0        0.0        0.0        0.0        0.0        0.0        0.0        0.0      0.0       6.2       3.2      11.3      19.5    385.59
    27     4  2008     8     2     459.8     0.0      0.0    0.0    0.0    0.0      1.6      0.0   -9.90      6.6      3.1     46      0.2      0.2   100      6.8     3.2      48      7.9    0.33      0      0      0      0      0     1.9     1.9     17     0.04      0.2      0.2      0.2   100    17.7     0.009    -9.9    0.000    0.000     100        0.00    0.000    0.000     459.8    381.3    0.33   118.4     166.4     129.8     118.7     105.0      85.5      76.5    0.000     0.000     0.000     0.000     0.000    0.33     0.00    0.00      0   -9.90   -9.00       26.0       39.9       39.6       39.5       39.5       39.5       39.4       39.4       39.3       39.3       39.2       39.2        0.0        0.0        0.0        0.0        0.0        0.0        0.0        0.0        0.0        0.0        0.0        0.0      0.0       6.2       7.8      13.4      19.0    385.59
    28     4  2008     9     2     463.7     7.1      0.0    0.0    7.1    0.0      1.6      0.0   -9.90      1.6      1.6    100      0.0      0.0   100      1.6     1.6     100      5.1    0.35      0      0      0      0      0     2.2     2.2     60     0.04      0.0      0.0      0.0   100    17.7     0.012    -9.9    0.000    0.000     100        0.00    0.000    0.000     463.7    385.3    0.35   128.4     173.0     134.9     114.2     101.5      85.0      79.6    0.000     0.000     0.000     0.000     0.000    0.35     0.00    0.00      0   -9.90   -9.00       31.5       39.5       39.3       39.3       39.3       39.3       39.3       39.3       39.3       39.2       39.2       39.2        0.0        0.0        0.0        0.0        0.0        0.0        0.0        0.0        0.0        0.0        0.0        0.0      7.1       1.5       9.1      10.6      12.0    385.59
    29     4  2008    10     2     461.8     1.7      0.0    0.0    1.7    0.0      1.2      0.0   -9.90      2.3      2.3     99      0.1      0.1   100      2.4     2.4      99      6.2    0.36      0      0      0      0      0     2.5     2.5     39     0.05      0.1      0.1      0.1   100    17.7     0.017    -9.9    0.000    0.000     100        0.00    0.000    0.000     461.8    383.5    0.36   132.3     179.3     139.9     119.8     106.4      88.7      82.5    0.000     0.000     0.000     0.000     0.000    0.36     0.00    0.00      0   -9.90   -9.00       30.8       39.3       39.2       39.2       39.2       39.2       39.2       39.2       39.2       39.2       39.2       39.2        0.0        0.0        0.0        0.0        0.0        0.0        0.0        0.0        0.0        0.0        0.0        0.0      1.7       2.2       9.3      11.8      14.2    385.59
    30     4  2008    11     2     461.4     2.9      0.0    0.0    2.9    0.0      0.8      0.0   -9.90      2.4      2.4    100      0.1      0.1   100      2.5     2.5     100      6.6    0.37      0      0      0      0      0     3.0     3.0     33     0.05      0.1      0.1      0.1   100    17.7     0.024    -9.9    0.000    0.000     100        0.00    0.000    0.000     461.4    383.2    0.37   137.2     185.4     144.6     124.1     110.2      91.8      85.3    0.000     0.000     0.000     0.000     0.000    0.37     0.00    0.00      0   -9.90   -9.00       31.2       39.2       39.1       39.1       39.1       39.1       39.1       39.1       39.1       39.1       39.1       39.1        0.0        0.0        0.0        0.0        0.0        0.0        0.0        0.0        0.0        0.0        0.0        0.0      2.9       2.3       8.3      12.1      15.9    385.59
     1     5  2008    12     2     464.4     6.7      0.0    0.0    6.6    0.1      0.5      0.0   -9.90      3.0      3.0    100      0.2      0.2   100      3.2     3.2     100      7.9    0.38      0      0      0      0      0     3.4     3.4     16     0.06      0.2      0.2      0.2   100    17.7     0.033    -9.9    0.000    0.000     100        0.00    0.000    0.000     464.4    386.3    0.38   145.1     191.3     149.2     129.3     114.8      95.2      88.0    0.000     0.000     0.000     0.000     0.000    0.38     0.00    0.00      0   -9.90   -9.00       34.7       39.1       39.1       39.1       39.1       39.1       39.1       39.1       39.1       39.1       39.1       39.1        0.0        0.0        0.0        0.0        0.0        0.0        0.0        0.0        0.0        0.0        0.0        0.0      6.7       2.9       8.2      13.4      18.7    385.59
     2     5  2008    13     2     468.2     6.9      0.0    0.0    6.7    0.2      0.3      0.0   -9.90      2.5      2.5    100      0.2      0.2   100      2.6     2.6     100      8.5    0.39      0      0      0      0      0     4.0     4.0     12     0.07      0.2      0.2      0.2   100    17.7     0.045    -9.9    0.000    0.000     100        0.00    0.000    0.000     468.2    390.1    0.39   153.5     196.9     153.6     132.0     117.2      97.6      90.6    0.000     0.000     0.000     0.000     0.000    0.39     0.00    0.00      0   -9.90   -9.00       38.8       39.1       39.0       39.0       39.0       39.0       39.0       39.0       39.0       39.0       39.0       39.0        0.0        0.0        0.0        0.0        0.0        0.0        0.0        0.0        0.0        0.0        0.0        0.0      6.9       2.4      10.8      14.0      17.2    385.59
     3     5  2008    14     2     473.9     9.4      0.0    0.0    8.0    1.4      0.2      0.0   -9.90      2.0      2.0    100      0.1      0.1   100      2.2     2.2     100      8.2    0.40      0      0      0      0      0     4.6     4.6     14     0.09      0.1      0.1      0.1   100    17.7     0.058    -9.9    0.000    0.000     100        0.00    0.000    0.000     473.9    395.8    0.40   163.6     202.4     157.9     134.8     119.7      99.9      93.1    0.000     0.000     0.000     0.000     0.000    0.40     0.00    0.00      0   -9.90   -9.00       44.6       39.0       39.0       39.0       39.0       39.0       39.0       39.0       39.0       39.0       39.0       39.0        0.0        0.0        0.0        0.0        0.0        0.0        0.0        0.0        0.0        0.0        0.0        0.0      9.4       2.0      11.0      13.7      16.3    385.59
     4     5  2008    15     2     473.6     3.4      0.0    0.0    3.3    0.1      0.1      0.0   -9.90      3.2      3.2    100      0.3      0.3   100      3.5     3.5     100      7.9    0.42      0      0      0      0      0     5.4     5.4     17     0.10      0.3      0.3      0.3   100    17.7     0.072    -9.9    0.000    0.000     100        0.00    0.000    0.000     473.6    395.5    0.42   167.4     207.7     162.0     141.2     125.3     103.8      95.6    0.000     0.000     0.000     0.000     0.000    0.42     0.00    0.00      0   -9.90   -9.00       42.1       40.4       39.6       39.2       39.1       39.0       39.0       39.0       39.0       39.0       39.0       39.0        0.0        0.0        0.0        0.0        0.0        0.0        0.0        0.0        0.0        0.0        0.0        0.0      3.4       3.2       9.9      13.4      16.8    385.59
     5     5  2008    16     2     469.0     0.0      0.0    0.0    0.0    0.0      0.2      0.0   -9.90      4.6      3.9     85      0.5      0.5   100      5.1     4.4      86      8.2    0.43      0      0      0      0      0     6.3     6.3     14     0.11      0.5      0.5      0.5   100    17.7     0.089    -9.9    0.000    0.000     100        0.00    0.000    0.000     469.0    390.9    0.43   166.4     212.9     166.1     148.3     131.4     107.9      98.0    0.000     0.000     0.000     0.000     0.000    0.43     0.00    0.00      0   -9.90   -9.00       36.4       40.6       39.8       39.4       39.2       39.1       39.1       39.1       39.1       39.0       39.0       39.0        0.0        0.0        0.0        0.0        0.0        0.0        0.0        0.0        0.0        0.0        0.0        0.0      0.0       4.7       8.9      13.7      18.5    385.59
     6     5  2008    17     2     464.3     0.4      0.0    0.0    0.4    0.0      0.4      0.0   -9.90      4.7      4.0     85      0.6      0.6   100      5.3     4.6      87      8.4    0.44      0      0      0      0      0     7.3     7.3     12     0.13      0.6      0.6      0.6   100    17.7     0.110    -9.9    0.000    0.000     100        0.00    0.000    0.000     464.3    386.2    0.44   165.3     218.0     170.1     152.4     135.0     110.7     100.3    0.000     0.000     0.000     0.000     0.000    0.44     0.00    0.00      0   -9.90   -9.00       32.2       39.9       39.5       39.5       39.3       39.2       39.2       39.1       39.1       39.1       39.1       39.1        0.0        0.0        0.0        0.0        0.0        0.0        0.0        0.0        0.0        0.0        0.0        0.0      0.4       4.9       8.0      13.9      19.9    385.59
     7     5  2008    18     2     460.6     0.0      0.0    0.0    0.0    0.0      0.7      0.0   -9.90      4.8      2.7     56      0.4      0.4   100      5.2     3.1      59      5.4    0.45      0      0      0      0      0     8.5     8.5     53     0.15      0.4      0.4      0.4   100    17.7     0.122    -9.9    0.000    0.000     100        0.00    0.000    0.000     460.6    382.4    0.45   165.4     223.0     173.9     156.3     138.5     113.4     102.6    0.000     0.000     0.000     0.000     0.000    0.45     0.00    0.00      0   -9.90   -9.00       29.2       39.6       39.3       39.3       39.3       39.2       39.2       39.2       39.1       39.1       39.1       39.1        0.0        0.0        0.0        0.0        0.0        0.0        0.0        0.0        0.0        0.0        0.0        0.0      0.0       5.1       7.5      10.9      14.4    385.59
     8     5  2008    19     2     462.5     5.7      0.0    0.0    5.7    0.0      0.7      0.0   -9.90      2.9      2.9    100      0.2      0.2   100      3.1     3.1     100      5.2    0.46      0      0      0      0      0     9.8     9.8     57     0.17      0.2      0.2      0.2   100    17.7     0.136    -9.9    0.000    0.000     100        0.00    0.000    0.000     462.5    384.3    0.46   171.3     227.9     177.7     154.6     137.2     113.7     104.8    0.000     0.000     0.000     0.000     0.000    0.46     0.00    0.00      0   -9.90   -9.00       31.8       39.3       39.2       39.2       39.2       39.2       39.2       39.1       39.1       39.1       39.1       39.1        0.0        0.0        0.0        0.0        0.0        0.0        0.0        0.0        0.0        0.0        0.0        0.0      5.7       3.1       6.4      10.7      15.0    385.59
     9     5  2008    20     2     458.8     0.1      0.0    0.0    0.1    0.0      0.6      0.0   -9.90      3.5      3.0     85      0.2      0.2   100      3.7     3.2      86      4.5    0.47      0      0      0      0      0    11.4    11.4     69     0.20      0.2      0.2      0.2   100    17.7     0.147    -9.9    0.000    0.000     100        0.00    0.000    0.000     458.8    380.6    0.47   171.6     232.6     181.5     159.9     141.8     117.0     107.0    0.000     0.000     0.000     0.000     0.000    0.47     0.00    0.00      0   -9.90   -9.00       28.7       39.2       39.1       39.1       39.1       39.1       39.1       39.1       39.1       39.1       39.1       39.1        0.0        0.0        0.0        0.0        0.0        0.0        0.0        0.0        0.0        0.0        0.0        0.0      0.1       3.9       4.9      10.0      15.1    385.59
    10     5  2008    21     2     455.0     0.4      0.0    0.0    0.4    0.0      0.4      0.0   -9.90      3.8      3.2     84      0.5      0.5   100      4.3     3.7      86      5.7    0.47      0      0      0      0      0    13.3    13.3     49     0.23      0.5      0.5      0.5   100    17.7     0.168    -9.9    0.000    0.000     100        0.00    0.000    0.000     455.0    376.9    0.47   171.7     237.3     185.1     164.5     145.8     119.9     109.2    0.000     0.000     0.000     0.000     0.000    0.47     0.00    0.00      0   -9.90   -9.00       25.3       39.1       39.1       39.1       39.1       39.1       39.1       39.1       39.1       39.1       39.1       39.1        0.0        0.0        0.0        0.0        0.0        0.0        0.0        0.0        0.0        0.0        0.0        0.0      0.4       4.4       5.8      11.2      16.5    385.59
    11     5  2008    22     2     451.4     0.2      0.0    0.0    0.2    0.0      0.3      0.0   -9.90      4.1      2.5     62      1.0      1.0   100      5.1     3.5      69      7.2    0.48      0      0      0      0      0    15.4    15.4     25     0.27      1.0      1.0      1.0   100    17.7     0.203    -9.9    0.000    0.000     100        0.00    0.000    0.000     451.4    373.4    0.48   171.9     241.9     188.7     169.1     149.8     122.8     111.3    0.000     0.000     0.000     0.000     0.000    0.48     0.00    0.00      0   -9.90   -9.00       23.0       38.1       39.0       39.0       39.0       39.0       39.0       39.0       39.0       39.0       39.0       39.0        0.0        0.0        0.0        0.0        0.0        0.0        0.0        0.0        0.0        0.0        0.0        0.0      0.2       4.9       8.0      12.7      17.4    385.59
    12     5  2008    23     2     448.4     0.2      0.0    0.0    0.2    0.0      0.1      0.0   -9.90      4.2      1.9     45      1.2      1.2   100      5.4     3.1      57      7.2    0.49      0      0      0      0      0    17.9    17.9     25     0.30      1.2      1.2      1.2   100    17.7     0.243    -9.9    0.000    0.000     100        0.00    0.000    0.000     448.4    370.3    0.49   172.5     246.4     192.2     173.4     153.5     125.5     113.4    0.000     0.000     0.000     0.000     0.000    0.49     0.00    0.00      0   -9.90   -9.00       21.3       36.9       39.0       39.0       39.0       39.0       39.0       39.0       39.0       39.0       39.0       39.0        0.0        0.0        0.0        0.0        0.0        0.0        0.0        0.0        0.0        0.0        0.0        0.0      0.2       5.3       5.7      12.7      19.7    385.59
    13     5  2008    24     2     445.5     0.4      0.0    0.0    0.4    0.0      0.1      0.0   -9.90      3.8      1.5     39      1.7      1.7   100      5.5     3.2      58      9.6    0.50      0      0      0      0      0    20.8    20.8      6     0.35      1.7      1.7      1.7   100    17.7     0.302    -9.9    0.000    0.000     100        0.00    0.000    0.000     445.5    367.5    0.50   173.1     250.9     195.7     175.9     155.8     127.6     115.4    0.000     0.000     0.000     0.000     0.000    0.50     0.00    0.00      0   -9.90   -9.00       20.2       35.2       39.0       39.0       39.0       39.0       39.0       39.0       39.0       39.0       39.0       39.0        0.0        0.0        0.0        0.0        0.0        0.0        0.0        0.0        0.0        0.0        0.0        0.0      0.4       5.1       8.4      15.1      21.9    385.59
    14     5  2008    25     2     443.1     0.0      0.0    0.0    0.0    0.0      0.0      0.0   -9.90      3.2      0.8     25      1.5      1.5   100      4.8     2.4      49      8.1    0.51      1      0      0      0      0    24.1    24.1     15     0.40      1.5      1.5      1.5   100    17.7     0.361    -9.9    0.000    0.000     100        0.00    0.000    0.000     443.1    365.1    0.51   174.2     255.3     199.1     177.5     157.3     129.2     117.4    0.000     0.000     0.000     0.000     0.000    0.51     0.00    0.00      0   -9.90   -9.00       19.4       33.7       39.0       39.0       39.0       39.0       39.0       39.0       39.0       39.0       39.0       39.0        0.0        0.0        0.0        0.0        0.0        0.0        0.0        0.0        0.0        0.0        0.0        0.0      0.0       4.6       9.5      13.6      17.7    385.59
    15     5  2008    26     2     440.4     0.0      0.0    0.0    0.0    0.0      0.0      0.0   -9.90      3.5      0.7     20      2.0      2.0   100      5.5     2.7      49      7.8    0.52      4      0      0      0      0    27.9    27.9     17     0.45      2.0      2.0      2.0   100    17.7     0.427    -9.9    0.000    0.000     100        0.00    0.000    0.000     440.4    362.4    0.52   174.9     259.6     202.5     182.9     161.9     132.4     119.4    0.000     0.000     0.000     0.000     0.000    0.52     0.00    0.00      0   -9.90   -9.00       18.7       31.7       39.0       39.0       39.0       39.0       39.0       39.0       39.0       39.0       39.0       39.0        0.0        0.0        0.0        0.0        0.0        0.0        0.0        0.0        0.0        0.0        0.0        0.0      0.0       5.4       5.8      13.3      20.9    385.59
    16     5  2008    27     2     437.2     0.1      0.0    0.0    0.1    0.0      0.0      0.0   -9.90      3.2      0.6     18      2.7      2.7   100      5.9     3.3      56     11.7    0.53      6      0      0      0      0    32.1    32.1      0     0.50      2.7      2.7      2.7   100    17.7     0.516    -9.9    0.000    0.000     100        0.00    0.000    0.000     437.2    359.2    0.53   175.0     263.9     205.8     185.9     164.6     134.6     121.4    0.000     0.000     0.000     0.000     0.000    0.53     0.00    0.00      0   -9.90   -9.00       18.2       28.9       39.0       39.0       39.0       39.0       39.0       39.0       39.0       39.0       39.0       39.0        0.0        0.0        0.0        0.0        0.0        0.0        0.0        0.0        0.0        0.0        0.0        0.0      0.1       5.4      11.0      17.2      23.4    385.59
    17     5  2008    28     2     433.1     0.1      0.0    0.0    0.1    0.0      0.0      0.0   -9.90      3.5      0.5     15      3.6      3.6   100      7.1     4.1      58     13.2    0.54     15      0      0      0      0    36.5    36.5      0     0.56      3.6      3.6      3.6   100    17.7     0.614    -9.9    0.000    0.000      99        0.00    0.000    0.000     433.1    355.1    0.54   174.2     268.1     209.1     192.2     170.0     138.1     123.3    0.000     0.000     0.000     0.000     0.000    0.54     0.00    0.00      0   -9.90   -9.00       17.8       25.3       39.0       39.0       39.0       39.0       39.0       39.0       39.0       39.0       39.0       39.0        0.0        0.0        0.0        0.0        0.0        0.0        0.0        0.0        0.0        0.0        0.0        0.0      0.1       6.5      11.8      18.8      25.7    385.59
    18     5  2008    29     2     428.3     0.1      0.0    0.0    0.1    0.0      0.0      0.0   -9.90      3.6      0.4     11      4.5      4.5   100      8.1     4.9      60     15.1    0.54     30      0      0      0      0    40.5    40.5      0     0.61      4.5      4.5      4.5   100    17.7     0.721    -9.9    0.000    0.000      99        0.00    0.000    0.000     428.3    350.3    0.54   172.7     272.2     212.4     198.0     175.0     141.4     125.2    0.000     0.000     0.000     0.000     0.000    0.54     0.00    0.00      0   -9.90   -9.00       17.5       23.0       36.8       39.0       39.0       39.0       39.0       39.0       39.0       39.0       39.0       39.0        0.0        0.0        0.0        0.0        0.0        0.0        0.0        0.0        0.0        0.0        0.0        0.0      0.1       7.4      13.8      20.6      27.5    385.59
    19     5  2008    30     2     423.4     0.0      0.0    0.0    0.0    0.0      0.0      0.0   -9.90      3.6      0.2      7      5.0      4.7    94      8.6     4.9      57     14.9    0.55     52      6      0      0      0    43.2    43.2      0     0.64      5.0      4.7      4.7    94    17.7     0.827    -9.9    0.000    0.000      97        0.00    0.000    0.000     423.4    345.4    0.55   171.0     276.4     215.6     202.3     178.7     144.1     127.1    0.000     0.000     0.000     0.000     0.000    0.55     0.00    0.00      0   -9.90   -9.00       17.2       23.0       33.6       37.6       39.0       39.0       39.0       39.0       39.0       39.0       39.0       39.0        0.0        0.0        0.0        0.0        0.0        0.0        0.0        0.0        0.0        0.0        0.0        0.0      0.0       7.8      14.4      20.4      26.3    385.59
    20     5  2008    31     2     419.0     0.0      0.0    0.0    0.0    0.0      0.0      0.0   -9.90      3.2      0.2      7      4.7      4.2    89      7.9     4.4      55     14.4    0.56     68     11      0      0      0    44.7    44.7      0     0.65      4.7      4.2      4.2    89    17.7     0.930    -9.9    0.000    0.000      94        0.00    0.000    0.000     419.0    341.0    0.56   169.7     280.4     218.7     203.3     179.7     145.4     129.0    0.000     0.000     0.000     0.000     0.000    0.56     0.00    0.00      0   -9.90   -9.00       17.0       23.0       30.3       36.7       39.0       39.0       39.0       39.0       39.0       39.0       39.0       39.0        0.0        0.0        0.0        0.0        0.0        0.0        0.0        0.0        0.0        0.0        0.0        0.0      0.0       7.2      13.7      19.9      26.2    385.59
    21     5  2008    32     2     415.3     1.2      0.0    0.0    1.2    0.0      0.0      0.0   -9.90      2.8      1.3     46      4.3      3.7    85      7.1     5.0      70     14.8    0.57     73     15      0      0      0    45.9    45.9      0     0.67      4.3      3.7      3.7    85    17.7     1.030    -9.9    0.000    0.000      92        0.00    0.000    0.000     415.3    337.3    0.57   169.1     284.4     221.8     203.9     180.4     146.5     130.8    0.000     0.000     0.000     0.000     0.000    0.57     0.00    0.00      0   -9.90   -9.00       16.9       23.0       27.1       36.2       39.0       39.0       39.0       39.0       39.0       39.0       39.0       39.0        0.0        0.0        0.0        0.0        0.0        0.0        0.0        0.0        0.0        0.0        0.0        0.0      1.2       6.5      13.7      20.3      26.9    385.59
    22     5  2008    33     2     416.0     6.1      0.0    0.0    6.1    0.0      0.0      0.0   -9.90      2.1      2.1    100      3.5      3.3    94      5.6     5.4      96     14.6    0.58     43      6      0      0      0    48.6    48.6      0     0.69      3.5      3.3      3.3    94    17.7     1.145    -9.9    0.000    0.000      90        0.00    0.000    0.000     416.0    338.0    0.58   172.9     288.4     224.9     202.2     179.1     146.6     132.6    0.000     0.000     0.000     0.000     0.000    0.58     0.00    0.00      0   -9.90   -9.00       21.0       23.0       24.4       35.6       39.0       39.0       39.0       39.0       39.0       39.0       39.0       39.0        0.0        0.0        0.0        0.0        0.0        0.0        0.0        0.0        0.0        0.0        0.0        0.0      6.1       5.1      15.1      20.1      25.0    385.59
    23     5  2008    34     2     415.0     4.1      0.0    0.0    4.1    0.0      0.0      0.0   -9.90      1.8      1.8    100      3.5      3.3    95      5.3     5.1      97     13.8    0.58     42      5      0      0      0    51.1    51.1      0     0.72      3.5      3.3      3.3    95    17.7     1.266    -9.9    0.000    0.000      90        0.00    0.000    0.000     415.0    337.0    0.58   175.0     292.3     228.0     203.9     180.7     148.2     134.4    0.000     0.000     0.000     0.000     0.000    0.58     0.00    0.00      0   -9.90   -9.00       22.8       23.0       22.9       34.3       39.0       39.0       39.0       39.0       39.0       39.0       39.0       39.0        0.0        0.0        0.0        0.0        0.0        0.0        0.0        0.0        0.0        0.0        0.0        0.0      4.1       4.8      14.5      19.3      24.1    385.59
    24     5  2008    35     2     412.6     0.4      0.0    0.0    0.4    0.0      0.0      0.0   -9.90      1.1      0.5     46      2.3      2.3    98      3.4     2.8      81     10.4    0.59     41      2      0      0      0    53.5    53.5      3     0.74      2.3      2.3      2.3    98    17.7     1.392    -9.9    0.000    0.000      89        0.00    0.000    0.000     412.6    334.6    0.59   175.6     296.1     231.0     201.2     178.6     147.9     136.2    0.000     0.000     0.000     0.000     0.000    0.59     0.00    0.00      0   -9.90   -9.00       22.7       23.0       22.9       32.0       39.0       39.0       39.0       39.0       39.0       39.0       39.0       39.0        0.0        0.0        0.0        0.0        0.0        0.0        0.0        0.0        0.0        0.0        0.0        0.0      0.4       3.2      12.6      15.9      19.3    385.59
    25     5  2008    36     2     410.8     2.5      0.0    0.0    2.5    0.0      0.0      0.0   -9.90      1.4      1.4    100      3.2      2.9    91      4.6     4.3      94     10.9    0.60     53      9      0      0      0    55.2    55.2      2     0.76      3.2      2.9      2.9    91    17.7     1.511    -9.9    0.000    0.000      88        0.00    0.000    0.000     410.8    332.8    0.60   176.8     300.0     234.0     207.6     184.0     151.4     138.0    0.000     0.000     0.000     0.000     0.000    0.60     0.00    0.00      0   -9.90   -9.00       22.4       23.0       22.9       30.4       39.0       39.0       39.0       39.0       39.0       39.0       39.0       39.0        0.0        0.0        0.0        0.0        0.0        0.0        0.0        0.0        0.0        0.0        0.0        0.0      2.5       4.3      11.6      16.4      21.3    385.59
    26     5  2008    37     2     408.5     0.0      0.0    0.0    0.0    0.0      0.0      0.0   -9.90      0.8      0.8    100      1.6      1.5    95      2.3     2.3      96      7.6    0.61     46      5      0      0      0    57.1    57.1     20     0.78      1.6      1.5      1.5    95    17.7     1.615    -9.9    0.000    0.000      88        0.00    0.000    0.000     408.5    330.5    0.61   177.5     303.8     237.0     204.0     181.2     150.7     139.7    0.000     0.000     0.000     0.000     0.000    0.61     0.00    0.00      0   -9.90   -9.00       21.6       23.0       22.9       28.9       39.0       39.0       39.0       39.0       39.0       39.0       39.0       39.0        0.0        0.0        0.0        0.0        0.0        0.0        0.0        0.0        0.0        0.0        0.0        0.0      0.0       2.5      10.8      13.1      15.3    385.59
    27     5  2008    38     2     408.0     4.0      0.0    0.0    4.0    0.0      0.0      0.0   -9.90      1.5      1.5    100      3.5      3.0    85      5.0     4.5      90      9.3    0.62     68     15      0      0      0    57.9    57.9      7     0.79      3.5      3.0      3.0    85    17.7     1.726    -9.9    0.000    0.000      87        0.00    0.000    0.000     408.0    330.0    0.62   179.9     307.6     239.9     214.6     190.1     155.9     141.5    0.000     0.000     0.000     0.000     0.000    0.62     0.00    0.00      0   -9.90   -9.00       22.3       23.0       22.9       27.8       39.0       39.0       39.0       39.0       39.0       39.0       39.0       39.0        0.0        0.0        0.0        0.0        0.0        0.0        0.0        0.0        0.0        0.0        0.0        0.0      4.0       4.8       9.8      14.8      19.9    385.59
    28     5  2008    39     2     405.1     0.6      0.0    0.0    0.6    0.0      0.0      0.0   -9.90      1.4      0.7     51      3.5      2.8    81      4.9     3.5      73      9.9    0.62     88     19      0      0      0    58.2    58.2      5     0.79      3.5      2.8      2.8    81    17.7     1.834    -9.9    0.000    0.000      86        0.00    0.000    0.000     405.1    327.1    0.62   179.9     311.3     242.8     216.5     191.8     157.5     143.2    0.000     0.000     0.000     0.000     0.000    0.62     0.00    0.00      0   -9.90   -9.00       22.2       23.0       22.9       25.4       38.6       39.0       39.0       39.0       39.0       39.0       39.0       39.0        0.0        0.0        0.0        0.0        0.0        0.0        0.0        0.0        0.0        0.0        0.0        0.0      0.6       4.6      10.1      15.4      20.7    385.59
    29     5  2008    40     2     401.7     0.0      0.0    0.0    0.0    0.0      0.0      0.0   -9.90      1.8      0.3     14      4.3      3.1    71      6.1     3.4      55      9.8    0.63    100     29      0      0      0    58.2    58.2      5     0.79      4.3      3.1      3.1    71    17.7     1.929    -9.9    0.000    0.000      84        0.00    0.000    0.000     401.7    323.7    0.63   179.4     315.0     245.7     223.3     197.7     161.2     144.9    0.000     0.000     0.000     0.000     0.000    0.63     0.00    0.00      0   -9.90   -9.00       21.9       23.0       22.9       23.7       37.1       39.0       39.0       39.0       39.0       39.0       39.0       39.0        0.0        0.0        0.0        0.0        0.0        0.0        0.0        0.0        0.0        0.0        0.0        0.0      0.0       5.8       8.9      15.3      21.7    385.59
    30     5  2008    41     2     398.2     0.0      0.0    0.0    0.0    0.0      0.0      0.0   -9.90      2.0      0.3     14      5.1      3.3    64      7.1     3.6      50     11.1    0.64    100     36      0      0      0    58.2    58.2      0     0.79      5.1      3.3      3.3    64    17.7     2.018    -9.9    0.000    0.000      82        0.00    0.000    0.000     398.2    320.2    0.64   178.7     318.6     248.5     228.5     202.1     164.1     146.5    0.000     0.000     0.000     0.000     0.000    0.64     0.00    0.00      0   -9.90   -9.00       21.6       23.0       22.9       23.1       35.1       38.4       39.0       39.0       39.0       39.0       39.0       39.0        0.0        0.0        0.0        0.0        0.0        0.0        0.0        0.0        0.0        0.0        0.0        0.0      0.0       6.5       8.8      16.6      24.5    385.59
    31     5  2008    42     2     395.1     0.2      0.0    0.0    0.2    0.0      0.0      0.0   -9.90      1.8      0.4     23      4.6      2.8    61      6.5     3.2      50     11.1    0.64    100     39      0      0      0    58.2    58.2      2     0.79      4.6      2.8      2.8    61    17.7     2.101    -9.9    0.000    0.000      80        0.00    0.000    0.000     395.1    317.1    0.64   178.4     322.2     251.3     229.2     202.8     165.2     148.2    0.000     0.000     0.000     0.000     0.000    0.64     0.00    0.00      0   -9.90   -9.00       21.4       23.0       22.9       23.0       33.1       37.7       39.0       39.0       39.0       39.0       39.0       39.0        0.0        0.0        0.0        0.0        0.0        0.0        0.0        0.0        0.0        0.0        0.0        0.0      0.2       6.0       9.6      16.6      23.5    385.59
     1     6  2008    43     2     392.5     0.3      0.0    0.0    0.3    0.0      0.0      0.0   -9.90      1.7      0.5     28      4.2      2.5    58      5.9     2.9      50     10.9    0.65    100     42      0      0      0    58.2    58.2      2     0.79      4.2      2.5      2.5    58    17.7     2.181    -9.9    0.000    0.000      78        0.00    0.000    0.000     392.5    314.5    0.65   178.5     325.7     254.0     229.8     203.5     166.2     149.8    0.000     0.000     0.000     0.000     0.000    0.65     0.00    0.00      0   -9.90   -9.00       21.2       23.0       22.9       23.0       31.0       37.3       39.0       39.0       39.0       39.0       39.0       39.0        0.0        0.0        0.0        0.0        0.0        0.0        0.0        0.0        0.0        0.0        0.0        0.0      0.3       5.5      10.3      16.4      22.5    385.59
     2     6  2008    44     2     390.4     0.0      0.0    0.0    0.0    0.0      0.0      0.0   -9.90      1.4      0.2     12      3.3      1.9    58      4.8     2.1      44      9.2    0.66    100     42      0      0      0    58.2    58.2      8     0.79      3.3      1.9      1.9    58    17.7     2.255    -9.9    0.000    0.000      77        0.00    0.000    0.000     390.4    312.4    0.66   179.1     329.2     256.7     228.9     202.8     166.6     151.4    0.000     0.000     0.000     0.000     0.000    0.66     0.00    0.00      0   -9.90   -9.00       21.1       23.0       22.9       23.0       29.1       37.3       39.0       39.0       39.0       39.0       39.0       39.0        0.0        0.0        0.0        0.0        0.0        0.0        0.0        0.0        0.0        0.0        0.0        0.0      0.0       4.6       8.7      14.7      20.6    385.59
     3     6  2008    45     2     387.8     0.0      0.0    0.0    0.0    0.0      0.0      0.0   -9.90      1.8      0.2     12      4.7      2.4    51      6.6     2.6      40     11.1    0.67    100     49      0      0      0    58.2    58.2      0     0.79      4.7      2.4      2.4    51    17.7     2.326    -9.9    0.000    0.000      75        0.00    0.000    0.000     387.8    309.8    0.67   179.2     332.6     259.4     236.6     209.4     170.5     153.0    0.000     0.000     0.000     0.000     0.000    0.67     0.00    0.00      0   -9.90   -9.00       20.8       23.0       22.9       23.0       27.1       36.9       39.0       39.0       39.0       39.0       39.0       39.0        0.0        0.0        0.0        0.0        0.0        0.0        0.0        0.0        0.0        0.0        0.0        0.0      0.0       6.0       9.1      16.6      24.1    385.59
     4     6  2008    46     2     387.2     3.9      0.0    0.0    3.9    0.0      0.0      0.0   -9.90      1.9      1.9    100      5.0      2.5    51      6.9     4.5      64     14.1    0.67    100     49      0      0      0    58.2    58.2      0     0.79      5.0      2.5      2.5    51    17.7     2.397    -9.9    0.000    0.000      73        0.00    0.000    0.000     387.2    309.2    0.67   181.3     336.0     262.1     240.1     212.4     172.7     154.5    0.000     0.000     0.000     0.000     0.000    0.67     0.00    0.00      0   -9.90   -9.00       22.8       23.0       22.9       23.0       25.3       36.1       39.0       39.0       39.0       39.0       39.0       39.0        0.0        0.0        0.0        0.0        0.0        0.0        0.0        0.0        0.0        0.0        0.0        0.0      3.9       6.3      11.8      19.6      27.5    385.59
     5     6  2008    47     2     391.6     7.9      0.0    0.0    7.9    0.0      0.0      0.0   -9.90      1.0      1.0    100      2.8      2.6    93      3.7     3.5      95     12.6    0.68     29      7      0      0      0    60.2    60.2      0     0.81      2.8      2.6      2.6    93    17.7     2.531    -9.9    0.000    0.000      74        0.00    0.000    0.000     391.6    313.6    0.68   188.2     339.3     264.7     231.3     205.2     169.8     156.1    0.000     0.000     0.000     0.000     0.000    0.68     0.00    0.00      0   -9.90   -9.00       27.2       23.0       22.9       23.0       25.3       36.1       39.0       39.0       39.0       39.0       39.0       39.0        0.0        0.0        0.0        0.0        0.0        0.0        0.0        0.0        0.0        0.0        0.0        0.0      7.9       3.4      14.6      18.1      21.6    385.59
     6     6  2008    48     2     388.5     0.1      0.0    0.0    0.1    0.0      0.0      0.0   -9.90      1.6      0.5     33      4.5      2.6    58      6.1     3.2      51     13.1    0.69    100     42      0      0      0    60.2    60.2      0     0.81      4.5      2.6      2.6    58    17.7     2.614    -9.9    0.000    0.000      72        0.00    0.000    0.000     388.5    310.5    0.69   187.9     342.8     267.4     242.3     214.5     175.1     157.7    0.000     0.000     0.000     0.000     0.000    0.69     0.00    0.00      0   -9.90   -9.00       24.1       23.0       22.9       23.0       25.3       36.1       39.0       39.0       39.0       39.0       39.0       39.0        0.0        0.0        0.0        0.0        0.0        0.0        0.0        0.0        0.0        0.0        0.0        0.0      0.1       5.6      13.5      18.6      23.7    385.59
     7     6  2008    49     2     384.9     0.0      0.0    0.0    0.0    0.0      0.0      0.0   -9.90      2.4      0.5     19      6.9      3.2    46      9.3     3.6      39     13.9    0.69    100     54      0      0      0    60.2    60.2      0     0.81      6.9      3.2      3.2    46    17.7     2.680    -9.9    0.000    0.000      71        0.00    0.000    0.000     384.9    306.9    0.69   186.8     346.1     270.0     256.1     226.1     181.6     159.2    0.000     0.000     0.000     0.000     0.000    0.69     0.00    0.00      0   -9.90   -9.00       22.7       23.0       22.9       23.0       24.1       35.2       39.0       39.0       39.0       39.0       39.0       39.0        0.0        0.0        0.0        0.0        0.0        0.0        0.0        0.0        0.0        0.0        0.0        0.0      0.0       8.5      12.7      19.4      26.0    385.59
     8     6  2008    50     2     385.0     5.0      0.0    0.0    5.0    0.0      0.0      0.0   -9.90      2.0      2.0    100      5.7      2.9    51      7.7     4.9      64     15.8    0.70    100     49      0      0      0    60.2    60.2      0     0.81      5.7      2.9      2.9    51    17.7     2.752    -9.9    0.000    0.000      70        0.00    0.000    0.000     385.0    307.0    0.70   189.5     349.3     272.5     252.5     223.2     180.8     160.7    0.000     0.000     0.000     0.000     0.000    0.70     0.00    0.00      0   -9.90   -9.00       22.8       23.0       22.9       23.0       24.1       35.2       39.0       39.0       39.0       39.0       39.0       39.0        0.0        0.0        0.0        0.0        0.0        0.0        0.0        0.0        0.0        0.0        0.0        0.0      5.0       7.0      15.0      21.3      27.6    385.59
     9     6  2008    51     2     382.2     0.6      0.0    0.0    0.6    0.0      0.0      0.0   -9.90      1.9      0.8     43      5.3      2.5    48      7.1     3.3      47     14.7    0.71    100     52      0      0      0    60.2    60.2      0     0.81      5.3      2.5      2.5    48    17.7     2.822    -9.9    0.000    0.000      68        0.00    0.000    0.000     382.2    304.2    0.71   189.3     352.6     275.0     252.8     223.6     181.6     162.2    0.000     0.000     0.000     0.000     0.000    0.71     0.00    0.00      0   -9.90   -9.00       22.6       23.0       22.9       23.0       23.3       33.5       38.9       39.0       39.0       39.0       39.0       39.0        0.0        0.0        0.0        0.0        0.0        0.0        0.0        0.0        0.0        0.0        0.0        0.0      0.6       6.5      14.2      20.2      26.2    385.59
    10     6  2008    52     2     379.2     0.0      0.0    0.0    0.0    0.0      0.0      0.0   -9.90      2.3      0.3     15      6.4      2.7    42      8.7     3.0      35     16.7    0.71    100     58      0      0      0    60.2    60.2      0     0.81      6.4      2.7      2.7    42    17.7     2.881    -9.9    0.000    0.000      67        0.00    0.000    0.000     379.2    301.2    0.71   188.7     355.8     277.5     260.8     230.4     185.6     163.7    0.000     0.000     0.000     0.000     0.000    0.71     0.00    0.00      0   -9.90   -9.00       22.2       23.0       22.9       23.0       23.1       31.8       38.1       39.0       39.0       39.0       39.0       39.0        0.0        0.0        0.0        0.0        0.0        0.0        0.0        0.0        0.0        0.0        0.0        0.0      0.0       7.9      15.1      22.2      29.3    385.59
    11     6  2008    53     2     376.2     0.0      0.0    0.0    0.0    0.0      0.0      0.0   -9.90      2.7      0.4     14      7.5      2.7    36     10.2     3.1      30     17.1    0.72    100     64      0      0      0    60.2    60.2      0     0.81      7.5      2.7      2.7    36    17.7     2.933    -9.9    0.000    0.000      66        0.00    0.000    0.000     376.2    298.2    0.72   188.1     358.9     279.9     268.8     237.1     189.6     165.1    0.000     0.000     0.000     0.000     0.000    0.72     0.00    0.00      0   -9.90   -9.00       21.9       23.0       22.9       23.0       23.0       30.2       37.2       39.0       39.0       39.0       39.0       39.0        0.0        0.0        0.0        0.0        0.0        0.0        0.0        0.0        0.0        0.0        0.0        0.0      0.0       9.3      15.6      22.6      29.5    385.59
    12     6  2008    54     2     374.7     3.0      0.0    0.0    3.0    0.0      0.0      0.0   -9.90      2.2      2.2    100      6.2      2.3    37      8.4     4.5      53     17.5    0.72    100     63      0      0      0    60.2    60.2      0     0.81      6.2      2.3      2.3    37    17.7     2.986    -9.9    0.000    0.000      64        0.00    0.000    0.000     374.7    296.7    0.72   188.9     361.8     282.2     264.4     233.6     188.4     166.4    0.000     0.000     0.000     0.000     0.000    0.72     0.00    0.00      0   -9.90   -9.00       22.7       23.0       22.9       23.0       23.0       28.5       36.6       39.0       39.0       39.0       39.0       39.0        0.0        0.0        0.0        0.0        0.0        0.0        0.0        0.0        0.0        0.0        0.0        0.0      3.0       7.7      16.5      23.0      29.5    385.59
    13     6  2008    55     2     377.2     6.1      0.0    0.0    6.1    0.0      0.0      0.0   -9.90      1.4      1.4    100      4.0      2.2    55      5.4     3.6      67     15.6    0.73    100     45      0      0      0    60.2    60.2      0     0.81      4.0      2.2      2.2    55    17.7     3.064    -9.9    0.000    0.000      64        0.00    0.000    0.000     377.2    299.2    0.73   193.7     364.8     284.5     254.9     225.8     185.1     167.8    0.000     0.000     0.000     0.000     0.000    0.73     0.00    0.00      0   -9.90   -9.00       25.2       23.0       22.9       23.0       23.0       28.5       36.6       39.0       39.0       39.0       39.0       39.0        0.0        0.0        0.0        0.0        0.0        0.0        0.0        0.0        0.0        0.0        0.0        0.0      6.1       4.9      16.2      21.1      26.1    385.59
    14     6  2008    56     2     388.5    15.2      0.0    0.0   15.1    0.1      0.0      0.0   -9.90      0.9      0.9    100      2.9      2.9   100      3.8     3.8     100     13.2    0.74      0      0      0      0      0    62.9    62.9      0     0.83      2.9      2.9      2.9   100    17.7     3.212    -9.9    0.000    0.000      65        0.00    0.000    0.000     388.5    310.5    0.74   207.5     367.9     287.0     251.3     222.9     184.3     169.2    0.000     0.000     0.000     0.000     0.000    0.74     0.00    0.00      0   -9.90   -9.00       36.5       23.0       22.9       23.0       23.0       28.5       36.6       39.0       39.0       39.0       39.0       39.0        0.0        0.0        0.0        0.0        0.0        0.0        0.0        0.0        0.0        0.0        0.0        0.0     15.2       3.5      15.3      18.8      22.2    385.59
    15     6  2008    57     2     384.2     0.2      0.0    0.0    0.2    0.0      0.0      0.0   -9.90      1.0      1.0     95      3.5      3.5   100      4.5     4.4      99     12.0    0.74      0      0      0      0      0    65.1    65.1      0     0.85      3.5      3.5      3.5   100    17.7     3.362    -9.9    0.000    0.000      65        0.00    0.000    0.000     384.2    306.2    0.74   205.8     371.2     289.5     256.0     227.0     187.0     170.8    0.000     0.000     0.000     0.000     0.000    0.74     0.00    0.00      0   -9.90   -9.00       32.2       23.0       22.9       23.0       23.0       28.5       36.6       39.0       39.0       39.0       39.0       39.0        0.0        0.0        0.0        0.0        0.0        0.0        0.0        0.0        0.0        0.0        0.0        0.0      0.2       4.1      14.0      17.5      21.0    385.59
    16     6  2008    58     2     381.1     2.6      0.0    0.0    2.6    0.0      0.0      0.0   -9.90      1.2      1.2    100      4.5      4.5   100      5.7     5.7     100     14.1    0.75      1      0      0      0      0    67.0    67.0      0     0.87      4.5      4.5      4.5   100    17.7     3.516    -9.9    0.000    0.000      66        0.00    0.000    0.000     381.1    303.1    0.75   205.2     374.4     292.1     263.0     232.9     190.6     172.2    0.000     0.000     0.000     0.000     0.000    0.75     0.00    0.00      0   -9.90   -9.00       29.1       23.0       22.9       23.0       23.0       28.5       36.6       39.0       39.0       39.0       39.0       39.0        0.0        0.0        0.0        0.0        0.0        0.0        0.0        0.0        0.0        0.0        0.0        0.0      2.6       5.2      15.1      19.6      24.1    385.59
    17     6  2008    59     2     376.5     0.0      0.0    0.0    0.0    0.0      0.0      0.0   -9.90      1.5      1.5     95      5.9      3.1    53      7.4     4.6      62     14.2    0.76    100     47      0      0      0    67.0    67.0      0     0.87      5.9      3.1      3.1    53    17.7     3.597    -9.9    0.000    0.000      65        0.00    0.000    0.000     376.5    298.5    0.76   203.1     377.7     294.6     272.1     240.6     195.1     173.7    0.000     0.000     0.000     0.000     0.000    0.76     0.00    0.00      0   -9.90   -9.00       24.6       23.0       22.9       23.0       23.0       28.5       36.6       39.0       39.0       39.0       39.0       39.0        0.0        0.0        0.0        0.0        0.0        0.0        0.0        0.0        0.0        0.0        0.0        0.0      0.0       6.8      13.6      19.8      25.9    385.59
    18     6  2008    60     2     374.9     1.6      0.0    0.0    1.6    0.0      0.0      0.0   -9.90      1.1      1.1    100      4.2      2.2    51      5.4     3.3      61     14.6    0.76    100     49      0      0      0    67.0    67.0      0     0.87      4.2      2.2      2.2    51    17.7     3.676    -9.9    0.000    0.000      65        0.00    0.000    0.000     374.9    296.9    0.76   203.9     380.8     297.0     266.1     235.7     193.2     175.1    0.000     0.000     0.000     0.000     0.000    0.76     0.00    0.00      0   -9.90   -9.00       22.9       23.0       22.9       23.0       23.0       28.5       36.6       39.0       39.0       39.0       39.0       39.0        0.0        0.0        0.0        0.0        0.0        0.0        0.0        0.0        0.0        0.0        0.0        0.0      1.6       4.9      16.5      20.1      23.6    385.59
    19     6  2008    61     2     378.9     5.6      0.0    0.0    5.6    0.0      0.0      0.0   -9.90      0.4      0.4    100      1.5      1.2    79      1.9     1.5      83     13.4    0.77     75     21      0      0      0    67.2    67.2      0     0.87      1.5      1.2      1.2    79    17.7     3.797    -9.9    0.000    0.000      65        0.00    0.000    0.000     378.9    300.9    0.77   210.3     383.8     299.4     254.2     226.0     189.0     176.6    0.000     0.000     0.000     0.000     0.000    0.77     0.00    0.00      0   -9.90   -9.00       26.9       23.0       22.9       23.0       23.0       28.5       36.6       39.0       39.0       39.0       39.0       39.0        0.0        0.0        0.0        0.0        0.0        0.0        0.0        0.0        0.0        0.0        0.0        0.0      5.6       1.7      17.5      18.9      20.2    385.59
    20     6  2008    62     2     380.0     5.0      0.0    0.0    5.0    0.0      0.0      0.0   -9.90      0.8      0.8    100      3.2      3.2   100      3.9     3.9     100     15.0    0.77     13      0      0      0      0    68.5    68.5      0     0.88      3.2      3.2      3.2   100    17.7     3.953    -9.9    0.000    0.000      66        0.00    0.000    0.000     380.0    302.0    0.77   213.8     387.0     301.8     264.7     234.8     194.0     178.0    0.000     0.000     0.000     0.000     0.000    0.77     0.00    0.00      0   -9.90   -9.00       28.0       23.0       22.9       23.0       23.0       28.5       36.6       39.0       39.0       39.0       39.0       39.0        0.0        0.0        0.0        0.0        0.0        0.0        0.0        0.0        0.0        0.0        0.0        0.0      5.0       3.6      16.5      20.5      24.5    385.59
    21     6  2008    63     2     377.4     1.5      0.0    0.0    1.5    0.0      0.0      0.0   -9.90      1.1      1.1    100      4.4      3.0    68      5.5     4.0      74     16.1    0.78     95     32      0      0      0    68.6    68.6      0     0.88      4.4      3.0      3.0    68    17.7     4.058    -9.9    0.000    0.000      66        0.00    0.000    0.000     377.4    299.4    0.78   213.7     390.1     304.3     273.1     241.9     198.2     179.5    0.000     0.000     0.000     0.000     0.000    0.78     0.00    0.00      0   -9.90   -9.00       25.4       23.0       22.9       23.0       23.0       28.5       36.6       39.0       39.0       39.0       39.0       39.0        0.0        0.0        0.0        0.0        0.0        0.0        0.0        0.0        0.0        0.0        0.0        0.0      1.5       5.0      15.4      21.6      27.9    385.59
    22     6  2008    64     2     373.9     0.0      0.0    0.0    0.0    0.0      0.0      0.0   -9.90      1.4      0.6     46      5.7      2.9    51      7.1     3.5      50     13.9    0.79    100     49      0      0      0    68.6    68.6      0     0.88      5.7      2.9      2.9    51    17.7     4.137    -9.9    0.000    0.000      65        0.00    0.000    0.000     373.9    295.9    0.79   212.6     393.2     306.7     282.0     249.4     202.6     180.9    0.000     0.000     0.000     0.000     0.000    0.79     0.00    0.00      0   -9.90   -9.00       22.3       23.0       22.9       23.0       23.0       28.1       36.6       39.0       39.0       39.0       39.0       39.0        0.0        0.0        0.0        0.0        0.0        0.0        0.0        0.0        0.0        0.0        0.0        0.0      0.0       6.5      13.2      19.4      25.6    385.59
    23     6  2008    65     2     371.0     0.7      0.0    0.0    0.7    0.0      0.0      0.0   -9.90      1.5      0.8     55      6.0      2.8    46      7.5     3.6      48     15.2    0.79    100     54      0      0      0    68.6    68.6      0     0.87      6.0      2.8      2.8    46    17.7     4.209    -9.9    0.000    0.000      65        0.00    0.000    0.000     371.0    293.0    0.79   212.0     396.2     309.0     285.9     252.8     204.8     182.2    0.000     0.000     0.000     0.000     0.000    0.79     0.00    0.00      0   -9.90   -9.00       22.2       23.0       22.9       23.0       23.0       26.3       35.6       39.0       39.0       39.0       39.0       39.0        0.0        0.0        0.0        0.0        0.0        0.0        0.0        0.0        0.0        0.0        0.0        0.0      0.7       6.9      12.7      20.8      28.8    385.59
    24     6  2008    66     2     368.0     0.0      0.0    0.0    0.0    0.0      0.0      0.0   -9.90      1.7      0.2     14      6.8      2.8    41      8.5     3.0      36     18.6    0.80    100     59      0      0      0    68.6    68.6      0     0.87      6.8      2.8      2.8    41    17.7     4.272    -9.9    0.000    0.000      64        0.00    0.000    0.000     368.0    290.0    0.80   211.3     399.1     311.3     292.1     258.0     208.1     183.6    0.000     0.000     0.000     0.000     0.000    0.80     0.00    0.00      0   -9.90   -9.00       22.0       23.0       22.9       23.0       23.0       24.9       34.2       39.0       39.0       39.0       39.0       39.0        0.0        0.0        0.0        0.0        0.0        0.0        0.0        0.0        0.0        0.0        0.0        0.0      0.0       7.8      18.5      24.1      29.7    385.59
    25     6  2008    67     2     364.8     0.0      0.0    0.0    0.0    0.0      0.0      0.0   -9.90      2.0      0.3     14      8.1      2.9    35     10.1     3.1      31     15.2    0.80    100     65      0      0      0    68.6    68.6      0     0.87      8.1      2.9      2.9    35    17.7     4.327    -9.9    0.000    0.000      63        0.00    0.000    0.000     364.8    286.8    0.80   210.4     401.9     313.5     301.0     265.6     212.4     184.9    0.000     0.000     0.000     0.000     0.000    0.80     0.00    0.00      0   -9.90   -9.00       21.7       23.0       22.9       23.0       23.0       23.9       32.7       38.6       39.0       39.0       39.0       39.0        0.0        0.0        0.0        0.0        0.0        0.0        0.0        0.0        0.0        0.0        0.0        0.0      0.0       9.3      14.2      20.8      27.3    385.59
    26     6  2008    68     2     362.2     0.1      0.0    0.0    0.1    0.0      0.0      0.0   -9.90      1.8      0.3     18      7.2      2.4    34      8.9     2.8      31     16.4    0.81    100     66      0      0      0    68.6    68.6      0     0.87      7.2      2.4      2.4    34    17.7     4.379    -9.9    0.000    0.000      62        0.00    0.000    0.000     362.2    284.2    0.81   209.8     404.7     315.6     298.0     263.2     211.7     186.1    0.000     0.000     0.000     0.000     0.000    0.81     0.00    0.00      0   -9.90   -9.00       21.5       23.0       22.9       23.0       23.0       23.4       31.1       38.3       39.0       39.0       39.0       39.0        0.0        0.0        0.0        0.0        0.0        0.0        0.0        0.0        0.0        0.0        0.0        0.0      0.1       8.2      13.9      22.2      30.6    385.59
    27     6  2008    69     2     360.5     2.6      0.0    0.0    2.6    0.0      0.0      0.0   -9.90      1.9      1.9    100      7.7      2.4    32      9.6     4.3      45     18.1    0.81    100     68      0      0      0    68.6    68.6      0     0.87      7.7      2.4      2.4    32    17.7     4.428    -9.9    0.000    0.000      62        0.00    0.000    0.000     360.5    282.5    0.81   210.2     407.3     317.7     302.7     267.2     214.3     187.4    0.000     0.000     0.000     0.000     0.000    0.81     0.00    0.00      0   -9.90   -9.00       22.2       23.0       22.9       23.0       23.0       23.1       29.6       37.6       39.0       39.0       39.0       39.0        0.0        0.0        0.0        0.0        0.0        0.0        0.0        0.0        0.0        0.0        0.0        0.0      2.6       8.8      17.6      23.6      29.6    385.59
    28     6  2008    70     2     358.0     0.2      0.0    0.0    0.2    0.0      0.0      0.0   -9.90      1.8      0.4     24      7.4      2.2    30      9.2     2.6      28     15.9    0.82    100     70      2      0      0    68.5    68.5      0     0.87      7.4      2.2      2.2    30    17.7     4.474    -9.9    0.000    0.000      61        0.00    0.000    0.000     358.0    280.0    0.82   209.8     409.9     319.7     303.3     267.7     215.1     188.6    0.000     0.000     0.000     0.000     0.000    0.82     0.00    0.00      0   -9.90   -9.00       22.0       23.0       22.9       23.0       23.0       23.0       28.2       37.0       39.0       39.0       39.0       39.0        0.0        0.0        0.0        0.0        0.0        0.0        0.0        0.0        0.0        0.0        0.0        0.0      0.2       8.5      15.8      21.4      26.9    385.59
    29     6  2008    71     3     356.0     0.2      0.0    0.0    0.2    0.0      0.0      0.0   -9.90      1.6      0.4     24      6.6      1.9    29      8.2     2.3      28     14.9    0.82    100     71      2      0      0    68.4    68.4      0     0.87      6.6      1.9      1.9    29    17.7     4.518    -9.9    0.000    0.000      60        0.00    0.000    0.000     356.0    278.0    0.82   209.7     412.4     321.7     300.9     265.9     227.5     189.7    0.000     0.000     0.000     0.000     0.000    0.82     0.00    0.00      0   -9.90   -9.00       21.8       23.0       22.9       23.0       23.0       23.0       26.8       36.5       39.0       39.0       39.0       39.0        0.0        0.0        0.0        0.0        0.0        0.0        0.0        0.0        0.0        0.0        0.0        0.0      0.2       7.6      13.6      20.4      27.3    385.59
    30     6  2008    72     3     354.0     0.0      0.0    0.0    0.0    0.0      0.0      0.0   -9.90      1.7      0.2     13      6.6      1.8    27      8.3     2.0      24     16.9    0.83    100     73      4      0      0    68.3    68.3      0     0.86      6.6      1.8      1.8    27    17.7     4.559    -9.9    0.000    0.000      59        0.00    0.000    0.000     354.0    276.0    0.83   209.6     414.9     323.6     303.2     267.9     229.0     190.9    0.000     0.000     0.000     0.000     0.000    0.83     0.00    0.00      0   -9.90   -9.00       21.5       23.0       22.9       23.0       23.0       23.0       25.6       35.9       39.0       39.0       39.0       39.0        0.0        0.0        0.0        0.0        0.0        0.0        0.0        0.0        0.0        0.0        0.0        0.0      0.0       7.7      16.5      22.4      28.4    385.59
     1     7  2008    73     3     352.2     0.0      0.0    0.0    0.0    0.0      0.0      0.0   -9.90      1.5      0.2     13      5.8      1.5    26      7.3     1.7      24     15.2    0.83    100     74      4      0      0    68.1    68.1      0     0.86      5.8      1.5      1.5    26    17.7     4.599    -9.9    0.000    0.000      58        0.00    0.000    0.000     352.2    274.2    0.83   209.7     417.3     325.5     300.7     265.9     228.8     192.0    0.000     0.000     0.000     0.000     0.000    0.83     0.00    0.00      0   -9.90   -9.00       21.4       23.0       22.9       23.0       23.0       23.0       24.5       35.4       39.0       39.0       39.0       39.0        0.0        0.0        0.0        0.0        0.0        0.0        0.0        0.0        0.0        0.0        0.0        0.0      0.0       6.8      14.4      20.7      27.0    385.59
     2     7  2008    74     3     350.6     0.0      0.0    0.0    0.0    0.0      0.0      0.0   -9.90      1.5      0.2     13      6.0      1.5    25      7.5     1.7      22     13.6    0.84    100     75      5      0      0    67.9    67.9      0     0.85      6.0      1.5      1.5    25    17.7     4.636     1.4    0.065    0.261      58        0.03    0.000    0.000     350.6    272.6    0.84   209.9     419.7     327.4     303.3     268.2     230.4     193.1    0.000     0.000     0.000     0.000     0.000    0.84     0.00    0.00      0   -9.90   -9.00       21.2       23.0       22.9       23.0       23.0       23.0       23.8       34.6       39.0       39.0       39.0       39.0        0.0        0.0        0.0        0.0        0.0        0.0        0.0        0.0        0.0        0.0        0.0        0.0      0.0       7.0      13.3      19.1      24.9    385.59
     3     7  2008    75     3     349.0     0.0      0.0    0.0    0.0    0.0      0.0      0.0   -9.90      1.5      0.2     12      5.7      1.3    24      7.2     1.5      21     15.8    0.84    100     76      6      0      0    67.7    67.7      0     0.85      5.7      1.3      1.3    24    17.7     4.671     1.6    0.076    0.305      57        0.03    0.000    0.000     349.0    271.0    0.84   210.2     422.0     329.2     303.6     268.4     231.1     194.1    0.000     0.000     0.000     0.000     0.000    0.84     0.00    0.00      0   -9.90   -9.00       21.0       23.0       22.9       23.0       23.0       23.0       23.4       33.8       39.0       39.0       39.0       39.0        0.0        0.0        0.0        0.0        0.0        0.0        0.0        0.0        0.0        0.0        0.0        0.0      0.0       6.7      14.0      21.2      28.5    385.59
     4     7  2008    76     3     347.3     0.0      0.0    0.0    0.0    0.0      0.0      0.0   -9.90      2.1      0.2     12      7.7      1.5    20      9.8     1.8      18     16.6    0.85     -9     80     13      0      0    67.3    67.3      0     0.84      7.7      1.5      1.5    20    17.7     4.700     1.9    0.089    0.355      56        0.03    0.000    0.000     347.3    269.3    0.85   210.3     424.2     330.9     317.2     279.9     236.8     195.1    0.000     0.000     0.000     0.000     0.000    0.85     0.00    0.00      0   -9.90   -9.00       20.7       23.0       22.9       23.0       23.0       23.0       23.2       32.6       38.8       39.0       39.0       39.0        0.0        0.0        0.0        0.0        0.0        0.0        0.0        0.0        0.0        0.0        0.0        0.0      0.0       9.2      14.2      22.9      31.7    385.59
     5     7  2008    77     3     351.5     8.2      0.0    0.0    8.2    0.0      0.0      0.0   -9.90      1.3      1.3    100      4.8      2.7    56      6.1     4.0      65     15.5    0.85     -9     44      0      0      0    67.2    67.2      0     0.84      4.8      2.7      2.7    56    17.7     4.783     2.2    0.105    0.421      56        0.04    0.000    0.000     351.5    273.5    0.85   216.1     426.3     332.5     301.8     267.1     231.7     196.1    0.000     0.000     0.000     0.000     0.000    0.85     0.00    0.00      0   -9.90   -9.00       25.0       23.0       22.9       23.0       23.0       23.0       23.2       32.6       38.8       39.0       39.0       39.0        0.0        0.0        0.0        0.0        0.0        0.0        0.0        0.0        0.0        0.0        0.0        0.0      8.2       5.7      16.5      21.0      25.5    385.59
     6     7  2008    78     3     348.9     0.0      0.0    0.0    0.0    0.0      0.0      0.0   -9.90      1.3      1.3    100      4.9      1.3    27      6.2     2.6      43     15.4    0.86     -9     73      1      0      0    67.2    67.2      0     0.84      4.9      1.3      1.3    27    17.7     4.824     2.6    0.123    0.493      55        0.05    0.000    0.000     348.9    270.9    0.86   215.7     429.1     334.7     304.3     269.3     219.6     197.4    0.000     0.000     0.000     0.000     0.000    0.86     0.00    0.00      0   -9.90   -9.00       22.5       23.0       22.9       23.0       23.0       23.0       23.1       32.5       38.8       39.0       39.0       39.0        0.0        0.0        0.0        0.0        0.0        0.0        0.0        0.0        0.0        0.0        0.0        0.0      0.0       5.8      15.0      20.9      26.8    385.59
     7     7  2008    79     3     345.1     0.0      0.0    0.0    0.0    0.0      0.0      0.0   -9.90      2.3      2.3    100      8.2      1.6    19     10.5     3.8      36     16.6    0.86     -9     81     11      0      0    66.9    66.9      0     0.83      8.2      1.6      1.6    19    17.7     4.852     2.9    0.143    0.572      55        0.05    0.000    0.000     345.1    267.1    0.86   213.8     431.5     336.5     326.1     287.5     242.1     198.5    0.000     0.000     0.000     0.000     0.000    0.86     0.00    0.00      0   -9.90   -9.00       20.3       23.0       22.9       23.0       23.0       23.0       23.0       31.3       38.5       39.0       39.0       39.0        0.0        0.0        0.0        0.0        0.0        0.0        0.0        0.0        0.0        0.0        0.0        0.0      0.0       9.9      14.2      22.1      30.1    385.59
     8     7  2008    80     3     345.5     3.4      0.0    0.0    3.4    0.0      0.0      0.0   -9.90      1.6      1.6    100      5.9      1.3    23      7.5     3.0      40     16.7    0.87     -9     77      5      0      0    66.7    66.7      0     0.82      5.9      1.3      1.3    23    17.7     4.885     3.4    0.166    0.665      54        0.06    0.000    0.000     345.5    267.5    0.87   215.8     433.4     338.1     313.8     277.4     238.1     199.4    0.000     0.000     0.000     0.000     0.000    0.87     0.00    0.00      0   -9.90   -9.00       22.0       23.0       22.9       23.0       23.0       23.0       23.0       30.1       38.5       39.0       39.0       39.0        0.0        0.0        0.0        0.0        0.0        0.0        0.0        0.0        0.0        0.0        0.0        0.0      3.4       7.1      16.6      22.2      27.8    385.59
     9     7  2008    81     4     343.4     0.0      0.0    0.0    0.0    0.0      0.0      0.0   -9.90      1.2      1.2    100      4.3      1.0    23      5.5     2.2      40     14.2    0.87     -9     77      4      0      0    66.5    66.5      0     0.82      4.3      1.0      1.0    23    17.7     4.918     3.9    0.193    0.772      53        0.07    0.000    0.000     343.4    265.4    0.87   215.3     435.6     339.8     305.9     270.9     235.9     200.4    0.000     0.000     0.000     0.000     0.000    0.87     0.00    0.00      0   -9.90   -9.00       20.8       23.0       22.9       23.0       23.0       23.0       23.0       29.1       38.5       39.0       39.0       39.0        0.0        0.0        0.0        0.0        0.0        0.0        0.0        0.0        0.0        0.0        0.0        0.0      0.0       5.2      14.8      19.8      24.7    385.59
    10     7  2008    82     4     341.8     0.0      0.0    0.0    0.0    0.0      0.0      0.0   -9.90      1.2      0.6     54      4.2      0.9    21      5.3     1.5      28     12.4    0.88     -9     79      6      0      0    66.3    66.3      0     0.81      4.2      0.9      0.9    21    17.7     4.948     4.5    0.223    0.893      53        0.08    0.000    0.000     341.8    263.8    0.88   215.4     437.8     341.4     306.9     271.8     236.9     201.4    0.000     0.000     0.000     0.000     0.000    0.88     0.00    0.00      0   -9.90   -9.00       20.2       23.0       22.9       23.0       23.0       23.0       23.0       28.3       38.5       39.0       39.0       39.0        0.0        0.0        0.0        0.0        0.0        0.0        0.0        0.0        0.0        0.0        0.0        0.0      0.0       5.1      13.6      17.9      22.1    385.59
    11     7  2008    83     4     340.6     0.0      0.0    0.0    0.0    0.0      0.0      0.0   -9.90      1.7      0.2     11      5.7      1.1    18      7.4     1.2      17     15.2    0.88     -9     82     14      0      0    65.8    65.8      0     0.80      5.7      1.1      1.1    18    17.7     4.975     5.2    0.257    1.029      52        0.09    0.000    0.000     340.6    262.6    0.88   215.8     439.8     343.1     318.4     281.4     241.6     202.3    0.000     0.000     0.000     0.000     0.000    0.88     0.00    0.00      0   -9.90   -9.00       20.0       23.0       22.9       23.0       23.0       23.0       23.0       27.2       38.5       39.0       39.0       39.0        0.0        0.0        0.0        0.0        0.0        0.0        0.0        0.0        0.0        0.0        0.0        0.0      0.0       7.1      14.0      20.8      27.5    385.59
    12     7  2008    84     4     339.1     0.0      0.0    0.0    0.0    0.0      0.0      0.0   -9.90      2.5      0.3     10      8.3      1.2    15     10.8     1.5      14     16.0    0.88     -9     85     24      0      0    65.2    65.2      0     0.79      8.3      1.2      1.2    15    17.7     4.995     5.9    0.295    1.180      51        0.11    0.000    0.000     339.1    261.1    0.88   215.8     441.7     344.6     336.9     296.9     249.0     203.2    0.000     0.000     0.000     0.000     0.000    0.88     0.00    0.00      0   -9.90   -9.00       19.8       23.0       22.9       23.0       23.0       23.0       23.0       26.2       38.2       39.0       39.0       39.0        0.0        0.0        0.0        0.0        0.0        0.0        0.0        0.0        0.0        0.0        0.0        0.0      0.0      10.5      13.0      21.9      30.8    385.59
    13     7  2008    85     4     337.6     0.0      0.0    0.0    0.0    0.0      0.0      0.0   -9.90      3.0      0.3     10      9.3      1.2    13     12.3     1.5      12     17.9    0.89     -9     87     30      0      0    64.4    64.4      0     0.77      9.3      1.2      1.2    13    17.7     5.013     6.7    0.337    1.347      51        0.12    0.000    0.000     337.6    259.6    0.89   215.7     443.4     345.9     345.7     304.3     252.7     204.0    0.000     0.000     0.000     0.000     0.000    0.89     0.00    0.00      0   -9.90   -9.00       19.5       23.0       22.9       23.0       23.0       23.0       23.0       25.4       37.8       39.0       39.0       39.0        0.0        0.0        0.0        0.0        0.0        0.0        0.0        0.0        0.0        0.0        0.0        0.0      0.0      12.0      16.9      25.2      33.6    385.59
    14     7  2008    86     4     336.2     0.0      0.0    0.0    0.0    0.0      0.0      0.0   -9.90      3.2      0.3      9      9.4      1.1    12     12.7     1.4      11     18.5    0.89     -9     88     35      0      0    63.5    63.5      0     0.75      9.4      1.1      1.1    12    17.7     5.028     7.6    0.383    1.532      50        0.14    0.000    0.000     336.2    258.2    0.89   215.5     444.9     347.1     347.1     307.5     254.5     204.7    0.000     0.000     0.000     0.000     0.000    0.89     0.00    0.00      0   -9.90   -9.00       19.2       23.0       22.9       23.0       23.0       23.0       23.0       24.8       37.4       39.0       39.0       39.0        0.0        0.0        0.0        0.0        0.0        0.0        0.0        0.0        0.0        0.0        0.0        0.0      0.0      12.5      18.0      25.6      33.3    385.59
    15     7  2008    87     4     369.7    41.6      0.0    0.0   38.8    2.8      0.0      0.0   -9.90      1.4      1.4    100      4.0      4.0   100      5.4     5.4     100     16.6    0.89     -9      0      0      0      0    63.5    63.5      0     0.75      4.0      4.0      4.0   100    17.7     5.162     8.7    0.451    1.802      50        0.16    0.000    0.000     369.7    291.7    0.89   250.0     446.4     348.2     314.0     278.0     241.9     205.3    0.000     0.000     0.000     0.000     0.000    0.89     0.00    0.00      0   -9.90   -9.00       44.6       31.0       22.9       23.0       23.0       23.0       23.0       24.8       37.4       39.0       39.0       39.0        0.0        0.0        0.0        0.0        0.0        0.0        0.0        0.0        0.0        0.0        0.0        0.0     41.6       5.3      16.8      22.1      27.3    385.59
[...]
     1     8  2008   104     4     405.0     0.0      0.0    0.0    0.0    0.0      0.0      0.0   -9.90      2.0      1.1     54      5.7      5.7   100      7.7     6.8      88     15.4    0.96     -9      0      0      0      0    63.4    63.4      0     0.74      5.7      5.7      5.7   100    17.7     7.236    28.2    2.038    8.152      56        0.54    0.000    0.000     405.0    327.0    0.96   312.5     481.4     375.5     351.8     310.8     250.7     221.5    0.000     0.000     0.000     0.000     0.000    0.96     0.00    0.00      0   -9.90   -9.00       22.4       34.1       38.3       39.3       39.3       29.4       23.0       24.8       37.4       39.0       39.0       39.0        0.0        0.0        0.0        0.0        0.0        0.0        0.0        0.0        0.0        0.0        0.0        0.0      0.0       7.7      14.0      20.9      27.9    385.59
     2     8  2008   105     4     398.4     0.0      0.0    0.0    0.0    0.0      0.0      0.0   -9.90      2.1      0.7     32      5.9      5.9   100      8.0     6.6      82     16.6    0.96     -9      0      0      0      0    63.4    63.4      0     0.74      5.9      5.9      5.9   100    17.7     7.367    29.3    2.161    8.643      56        0.56    0.000    0.000     398.4    320.4    0.96   305.9     481.4     375.5     353.4     312.2     251.4     221.5    0.000     0.000     0.000     0.000     0.000    0.96     0.00    0.00      0   -9.90   -9.00       21.7       29.4       37.1       39.2       39.2       29.7       23.0       24.8       37.4       39.0       39.0       39.0        0.0        0.0        0.0        0.0        0.0        0.0        0.0        0.0        0.0        0.0        0.0        0.0      0.0       8.0      14.8      22.1      29.3    385.59
     3     8  2008   106     4     392.4     0.0      0.0    0.0    0.0    0.0      0.0      0.0   -9.90      2.1      0.5     21      6.1      5.6    91      8.3     6.1      73     18.4    0.96     -9      9      0      0      0    63.4    63.4      0     0.74      6.1      5.6      5.6    91    17.7     7.486    30.5    2.283    9.133      56        0.58    0.000    0.000     392.4    314.4    0.96   299.9     481.4     375.5     355.1     313.5     252.1     221.5    0.000     0.000     0.000     0.000     0.000    0.96     0.00    0.00      0   -9.90   -9.00       21.3       25.2       35.7       39.1       39.1       29.8       23.0       24.8       37.4       39.0       39.0       39.0        0.0        0.0        0.0        0.0        0.0        0.0        0.0        0.0        0.0        0.0        0.0        0.0      0.0       8.3      17.8      24.1      30.3    385.59
     4     8  2008   107     4     387.1     0.0      0.0    0.0    0.0    0.0      0.0      0.0   -9.90      2.0      0.3     15      5.6      4.9    88      7.6     5.2      69     19.1    0.96     -9     12      0      0      0    63.4    63.4      0     0.74      5.6      4.9      4.9    88    17.7     7.601    31.7    2.407    9.628      56        0.61    0.000    0.000     387.1    309.1    0.96   294.7     481.4     375.5     351.2     310.3     250.5     221.5    0.000     0.000     0.000     0.000     0.000    0.96     0.00    0.00      0   -9.90   -9.00       21.0       22.7       33.3       39.1       39.1       29.9       23.0       24.8       37.4       39.0       39.0       39.0        0.0        0.0        0.0        0.0        0.0        0.0        0.0        0.0        0.0        0.0        0.0        0.0      0.0       7.6      19.2      25.0      30.8    385.59
     5     8  2008   108     4     384.1     2.6      0.0    0.0    2.6    0.0      0.0      0.0   -9.90      1.6      1.6    100      4.5      4.1    91      6.1     5.6      93     18.9    0.96     -9      9      0      0      0    63.4    63.4      0     0.74      4.5      4.1      4.1    91    17.7     7.719    32.8    2.535   10.139      56        0.63    0.000    0.000     384.1    306.1    0.96   291.6     481.4     375.5     343.0     303.5     247.1     221.5    0.000     0.000     0.000     0.000     0.000    0.96     0.00    0.00      0   -9.90   -9.00       22.0       22.7       29.2       39.0       39.0       30.0       23.0       24.8       37.4       39.0       39.0       39.0        0.0        0.0        0.0        0.0        0.0        0.0        0.0        0.0        0.0        0.0        0.0        0.0      2.6       6.1      19.0      24.4      29.7    385.59
     6     8  2008   109     4     379.4     0.0      0.0    0.0    0.0    0.0      0.0      0.0   -9.90      1.5      1.1     73      4.2      3.6    86      5.7     4.7      83     14.6    0.96     -9     14      0      0      0    63.4    63.4      0     0.74      4.2      3.6      3.6    86    17.7     7.832    34.0    2.663   10.652      57        0.65    0.000    0.000     379.4    301.4    0.96   286.9     481.4     375.5     340.8     301.7     246.2     221.5    0.000     0.000     0.000     0.000     0.000    0.96     0.00    0.00      0   -9.90   -9.00       20.9       22.7       25.6       39.0       39.0       30.0       23.0       24.8       37.4       39.0       39.0       39.0        0.0        0.0        0.0        0.0        0.0        0.0        0.0        0.0        0.0        0.0        0.0        0.0      0.0       5.7      15.8      20.1      24.3    385.59
     7     8  2008   110     4     376.1     0.0      0.0    0.0    0.0    0.0      0.0      0.0   -9.90      1.3      0.2     12      3.8      3.2    84      5.1     3.3      65     13.9    0.96     -9     16      0      0      0    63.4    63.4      0     0.74      3.8      3.2      3.2    84    17.7     7.942    35.2    2.793   11.172      57        0.68    0.000    0.000     376.1    298.1    0.96   283.6     481.4     375.5     337.5     298.9     244.8     221.5    0.000     0.000     0.000     0.000     0.000    0.96     0.00    0.00      0   -9.90   -9.00       20.8       22.7       22.9       38.5       39.0       30.0       23.0       24.8       37.4       39.0       39.0       39.0        0.0        0.0        0.0        0.0        0.0        0.0        0.0        0.0        0.0        0.0        0.0        0.0      0.0       5.1      13.7      19.4      25.0    385.59
     8     8  2008   111     4     372.2     0.0      0.0    0.0    0.0    0.0      0.0      0.0   -9.90      1.8      0.2     11      5.1      3.7    72      6.9     3.9      56     14.8    0.96     -9     28     -9      0      0    63.0    63.0      0     0.73      5.1      3.7      3.7    72    17.7     8.034    36.3    2.919   11.675      57        0.70    0.000    0.000     372.2    294.2    0.96   279.7     481.4     375.5     348.0     307.6     249.1     221.5    0.000     0.000     0.000     0.000     0.000    0.96     0.00    0.00      0   -9.90   -9.00       20.6       22.7       22.9       34.9       39.0       30.0       23.0       24.8       37.4       39.0       39.0       39.0        0.0        0.0        0.0        0.0        0.0        0.0        0.0        0.0        0.0        0.0        0.0        0.0      0.0       7.0      12.8      20.2      27.7    385.59
     9     8  2008   112     4     368.9     1.3      0.0    0.0    1.3    0.0      0.0      0.0   -9.90      1.7      1.3     77      4.7      3.3    69      6.5     4.6      71     17.9    0.96     -9     31     -9      0      0    62.4    62.4      0     0.72      4.7      3.3      3.3    69    17.7     8.122    37.5    3.044   12.178      57        0.73    0.000    0.000     368.9    290.9    0.96   276.4     481.4     375.5     345.8     305.8     248.2     221.5    0.000     0.000     0.000     0.000     0.000    0.96     0.00    0.00      0   -9.90   -9.00       20.5       22.7       22.9       31.6       39.0       30.0       23.0       24.8       37.4       39.0       39.0       39.0        0.0        0.0        0.0        0.0        0.0        0.0        0.0        0.0        0.0        0.0        0.0        0.0      1.3       6.6      18.3      23.4      28.4    385.59
    10     8  2008   113     4     366.6     0.0      0.0    0.0    0.0    0.0      0.0      0.0   -9.90      1.1      0.1     11      2.8      2.1    76      3.9     2.2      58     16.8    0.96     -9     24     -9      0      0    61.8    61.8      0     0.70      2.8      2.1      2.1    76    17.7     8.216    38.6    3.175   12.702      57        0.75    0.000    0.000     366.6    288.6    0.96   274.2     481.4     375.5     331.5     293.9     242.3     221.5    0.000     0.000     0.000     0.000     0.000    0.96     0.00    0.00      0   -9.90   -9.00       20.4       22.7       22.9       29.5       39.0       30.0       23.0       24.8       37.4       39.0       39.0       39.0        0.0        0.0        0.0        0.0        0.0        0.0        0.0        0.0        0.0        0.0        0.0        0.0      0.0       4.0      18.5      22.3      26.1    385.59
    11     8  2008   114     4     363.9     0.0      0.0    0.0    0.0    0.0      0.0      0.0   -9.90      1.6      0.2     11      3.9      2.6    66      5.5     2.7      50     17.4    0.96     -9     34     -9      0      0    61.1    61.1      0     0.69      3.9      2.6      2.6    66    17.7     8.296    39.8    3.302   13.208      57        0.78    0.000    0.000     363.9    285.9    0.96   271.4     481.4     375.5     340.8     301.7     246.2     221.5    0.000     0.000     0.000     0.000     0.000    0.96     0.00    0.00      0   -9.90   -9.00       20.2       22.7       22.9       26.9       39.0       30.0       23.0       24.8       37.4       39.0       39.0       39.0        0.0        0.0        0.0        0.0        0.0        0.0        0.0        0.0        0.0        0.0        0.0        0.0      0.0       5.7      17.7      22.9      28.1    385.59
    12     8  2008   115     4     360.7     0.0      0.0    0.0    0.0    0.0      0.0      0.0   -9.90      2.2      0.2     10      5.5      3.0    55      7.7     3.2      42     17.9    0.96     -9     45     -9      0      0    60.3    60.3      0     0.67      5.5      3.0      3.0    55    17.7     8.361    40.9    3.423   13.693      57        0.80    0.000    0.000     360.7    282.7    0.96   268.2     481.4     375.5     354.0     312.6     251.7     221.5    0.000     0.000     0.000     0.000     0.000    0.96     0.00    0.00      0   -9.90   -9.00       20.0       22.7       22.9       24.2       38.8       30.0       23.0       24.8       37.4       39.0       39.0       39.0        0.0        0.0        0.0        0.0        0.0        0.0        0.0        0.0        0.0        0.0        0.0        0.0      0.0       8.1      16.8      24.1      31.5    385.59
    13     8  2008   116     4     357.5     0.0      0.0    0.0    0.0    0.0      0.0      0.0   -9.90      2.7      0.3     10      6.2      3.0    48      8.8     3.2      37     19.6    0.96     -9     52     -9      0      0    59.4    59.4      0     0.65      6.2      3.0      3.0    48    17.7     8.417    42.1    3.541   14.164      56        0.82    0.000    0.000     357.5    279.5    0.96   265.0     481.4     375.5     361.1     318.6     254.6     221.5    0.000     0.000     0.000     0.000     0.000    0.96     0.00    0.00      0   -9.90   -9.00       19.7       22.7       22.9       23.0       36.9       30.0       23.0       24.8       37.4       39.0       39.0       39.0        0.0        0.0        0.0        0.0        0.0        0.0        0.0        0.0        0.0        0.0        0.0        0.0      0.0       9.4      20.1      27.2      34.3    385.59
    14     8  2008   117     4     354.5     0.0      0.0    0.0    0.0    0.0      0.0      0.0   -9.90      2.7      0.3     10      6.0      2.7    45      8.7     2.9      34     19.2    0.96     -9     55     -9      0      0    58.3    58.3      0     0.63      6.0      2.7      2.7    45    17.7     8.467    43.2    3.657   14.628      56        0.84    0.000    0.000     354.5    276.5    0.96   262.1     481.4     375.5     361.1     318.6     254.6     221.5    0.000     0.000     0.000     0.000     0.000    0.96     0.00    0.00      0   -9.90   -9.00       19.5       22.7       22.9       23.0       34.3       30.0       23.0       24.8       37.4       39.0       39.0       39.0        0.0        0.0        0.0        0.0        0.0        0.0        0.0        0.0        0.0        0.0        0.0        0.0      0.0       9.4      19.5      27.6      35.8    385.59
    15     8  2008   118     4     351.6     0.0      0.0    0.0    0.0    0.0      0.0      0.0   -9.90      3.4      0.3      9      7.0      2.7    38     10.4     3.0      29     19.6    0.96     -9     62     -9      0      0    57.1    57.1      0     0.61      7.0      2.7      2.7    38    17.7     8.508    44.3    3.769   15.076      56        0.86    0.000    0.000     351.6    273.6    0.96   259.1     481.4     375.5     372.1     327.7     259.2     221.5    0.000     0.000     0.000     0.000     0.000    0.96     0.00    0.00      0   -9.90   -9.00       19.2       22.7       22.9       23.0       31.7       30.0       23.0       24.8       37.4       39.0       39.0       39.0        0.0        0.0        0.0        0.0        0.0        0.0        0.0        0.0        0.0        0.0        0.0        0.0      0.0      11.4      20.3      28.4      36.4    385.59
    16     8  2008   119     4     348.9     0.0      0.0    0.0    0.0    0.0      0.0      0.0   -9.90      3.6      0.3      9      6.9      2.4    35     10.5     2.7      26     18.9    0.96     -9     65     -9      0      0    55.7    55.7      0     0.59      6.9      2.4      2.4    35    17.7     8.544    45.4    3.879   15.514      56        0.88    0.000    0.000     348.9    270.9    0.96   256.4     481.4     375.5     374.3     329.5     260.1     221.5    0.000     0.000     0.000     0.000     0.000    0.96     0.00    0.00      0   -9.90   -9.00       18.9       22.7       22.9       23.0       29.3       30.0       23.0       24.8       37.4       39.0       39.0       39.0        0.0        0.0        0.0        0.0        0.0        0.0        0.0        0.0        0.0        0.0        0.0        0.0      0.0      11.8      18.8      28.0      37.3    385.59
    17     8  2008   120     4     346.5     0.0      0.0    0.0    0.0    0.0      0.0      0.0   -9.90      3.5      0.3      8      6.3      2.1    33      9.8     2.4      24     18.6    0.96     -9     67     -9      0      0    54.1    54.1      0     0.56      6.3      2.1      2.1    33    17.7     8.577    46.5    3.987   15.948      55        0.90    0.000    0.000     346.5    268.5    0.96   254.0     481.4     375.5     371.5     327.2     259.0     221.5    0.000     0.000     0.000     0.000     0.000    0.96     0.00    0.00      0   -9.90   -9.00       18.6       22.7       22.9       23.0       27.2       30.0       23.0       24.8       37.4       39.0       39.0       39.0        0.0        0.0        0.0        0.0        0.0        0.0        0.0        0.0        0.0        0.0        0.0        0.0      0.0      11.3      18.3      26.5      34.7    385.59
    18     8  2008   121     4     347.7     3.8      0.0    0.0    3.8    0.0      0.0      0.0   -9.90      1.5      1.5    100      2.4      1.1    47      3.9     2.6      67     15.3    0.96     -9     53     -9      0      0    52.2    52.2      0     0.52      2.4      1.1      1.1    47    17.7     8.620    47.6    4.104   16.417      55        0.92    0.000    0.000     347.7    269.7    0.96   255.2     481.4     375.5     334.8     296.7     243.6     221.5    0.000     0.000     0.000     0.000     0.000    0.96     0.00    0.00      0   -9.90   -9.00       20.9       22.7       22.9       23.0       26.1       30.0       23.0       24.8       37.4       39.0       39.0       39.0        0.0        0.0        0.0        0.0        0.0        0.0        0.0        0.0        0.0        0.0        0.0        0.0      3.8       4.6      16.9      20.8      24.7    385.59
    19     8  2008   122     4     344.1     0.0      0.0    0.0    0.0    0.0      0.0      0.0   -9.90      2.4      2.3     97      3.5      1.3    36      5.8     3.6      61     16.2    0.96     -9     64     -9      0      0    50.1    50.1      0     0.49      3.5      1.3      1.3    36    17.7     8.651    47.6    4.119   16.477      55        0.92    0.000    0.000     344.1    266.1    0.96   251.6     481.4     375.5     348.5     308.1     249.4     221.5    0.000     0.000     0.000     0.000     0.000    0.96     0.00    0.00      0   -9.90   -9.00       18.6       22.7       22.9       23.0       24.8       30.0       23.0       24.8       37.4       39.0       39.0       39.0        0.0        0.0        0.0        0.0        0.0        0.0        0.0        0.0        0.0        0.0        0.0        0.0      0.0       7.1      15.5      21.7      27.9    385.59
    20     8  2008   123     4     342.7     0.0      0.0    0.0    0.0    0.0      0.0      0.0   -9.90      2.9      0.2      8      3.8      1.2    32      6.7     1.4      22     16.6    0.96     -9     68     -9      0      0    47.7    47.7      0     0.45      3.8      1.2      1.2    32    17.7     8.677    47.6    4.131   16.526      55        0.92    0.000    0.000     342.7    264.7    0.96   250.2     481.4     375.5     355.6     314.0     252.3     221.5    0.000     0.000     0.000     0.000     0.000    0.96     0.00    0.00      0   -9.90   -9.00       18.3       22.7       22.9       23.0       23.6       30.0       23.0       24.8       37.4       39.0       39.0       39.0        0.0        0.0        0.0        0.0        0.0        0.0        0.0        0.0        0.0        0.0        0.0        0.0      0.0       8.4      14.1      22.1      30.2    385.59
    21     8  2008   124     4     341.5     0.0      0.0    0.0    0.0    0.0      0.0      0.0   -9.90      2.7      0.2      8      3.0      1.0    33      5.6     1.2      21     16.9    0.96     -9     67     -9      0      0    44.9    44.9      0     0.40      3.0      1.0      1.0    33    17.7     8.700    47.6    4.142   16.570      55        0.92    0.000    0.000     341.5    263.5    0.96   249.0     481.4     375.5     350.1     309.4     250.1     221.5    0.000     0.000     0.000     0.000     0.000    0.96     0.00    0.00      0   -9.90   -9.00       18.1       22.7       22.9       23.0       23.0       29.7       23.0       24.8       37.4       39.0       39.0       39.0        0.0        0.0        0.0        0.0        0.0        0.0        0.0        0.0        0.0        0.0        0.0        0.0      0.0       7.4      14.8      23.5      32.1    385.59
    22     8  2008   125     4     340.5     0.0      0.0    0.0    0.0    0.0      0.0      0.0   -9.90      2.8      0.2      7      2.6      0.8    31      5.4     1.0      19     18.4    0.96     -9     69     -9      0      0    41.7    41.7      0     0.35      2.6      0.8      0.8    31    17.7     8.719    47.6    4.152   16.606      55        0.92    0.000    0.000     340.5    262.5    0.96   248.0     481.4     375.5     350.7     309.9     250.3     221.5    0.000     0.000     0.000     0.000     0.000    0.96     0.00    0.00      0   -9.90   -9.00       17.9       22.7       22.9       23.0       23.0       28.9       23.0       24.8       37.4       39.0       39.0       39.0        0.0        0.0        0.0        0.0        0.0        0.0        0.0        0.0        0.0        0.0        0.0        0.0      0.0       7.5      17.9      24.5      31.2    385.59
