AquaCrop 7.0 (August 2022) - Output created on (date) : 13-10-2022   at (time) : 17:07:55

    RunNr     Day1   Month1    Year1     Rain      ETo       GD     CO2      Irri   Infilt   Runoff    Drain   Upflow        E     E/Ex       Tr      TrW   Tr/Trx    SaltIn   SaltOut    SaltUp  SaltProf     Cycle   SaltStr  FertStr  WeedStr  TempStr   ExpStr   StoStr  BioMass  Brelative   HI    Y(dry)  Y(fresh)    WPet      Bin     Bout     DayN   MonthN    YearN
                                           mm       mm  degC.day    ppm        mm       mm       mm       mm       mm       mm        %       mm       mm        %    ton/ha    ton/ha    ton/ha    ton/ha      days       %        %        %        %        %        %    ton/ha        %       %    ton/ha   ton/ha    kg/m3   ton/ha   ton/ha
   Tot(1)       20        4     2007    132.2    906.6   1271.0   383.77      0.0    132.2      0.0      0.0      0.0    153.7       23    146.8    146.8       78     0.000     0.000     0.000     0.000       64        0        0        0       17       62       19     5.486       27      3.0    0.167   -9.900     0.07    0.000    0.000       12        8     2007  Maize_Calibration.PRM
   Tot(2)       20        4     2008    399.0    670.4   1098.4   385.59      0.0    333.1     65.9     11.9      0.0    153.5       60    346.2    343.8       91     0.000     0.000     0.000     0.000      106        0        0        0       19        5        5    16.707       88     30.6    5.120   -9.900     1.02    0.000    0.000       12        8     2008  Maize_Calibration.PRM
   Tot(3)       20        4     2009    216.4    753.0   1152.3   387.37      0.0    215.3      1.1      0.0      0.0    126.3       41    346.1    348.2       86     0.000     0.000     0.000     0.000      106        0        0        0       17        5       12    15.131       81     30.2    4.571   -9.900     0.97    0.000    0.000       12        8     2009  Maize_Calibration.PRM
   Tot(4)       20        4     2010    334.0    661.1   1253.6   389.85      0.0    310.6     23.4      1.0      0.0    126.9       47    379.6    376.6      100     0.000     0.000     0.000     0.000      106        0        0        0       11        4        0    19.219       99     30.0    5.767   -9.900     1.14    0.000    0.000       12        8     2010  Maize_Calibration.PRM
   Tot(5)       20        4     2011    206.3    733.5   1150.4   391.63      0.0    203.4      2.9      0.0      0.0    115.6       36    327.9    330.0       83     0.000     0.000     0.000     0.000      106        0        0        0       17       39       12    14.970       77     30.2    4.516   -9.900     1.02    0.000    0.000       12        8     2011  Maize_Calibration.PRM
   Tot(6)       20        4     2012    133.6    931.1   1365.5   393.82      0.0    133.5      0.1      0.4      0.0    135.4       24    202.2    203.4       73     0.000     0.000     0.000     0.000       73        0        0        0       11       36       20     7.849       40      8.8    0.693   -9.900     0.23    0.000    0.000       12        8     2012  Maize_Calibration.PRM
   Tot(7)       20        4     2013    198.2    736.9   1305.4   396.48      0.0    193.8      4.4      0.0      0.0    119.6       35    341.8    340.7       89     0.000     0.000     0.000     0.000      106        0        0        0        7        8        8    17.392       88     30.0    5.222   -9.900     1.13    0.000    0.000       12        8     2013  Maize_Calibration.PRM
   Tot(8)       20        4     2014    303.4    689.4   1193.3   398.55      0.0    285.1     18.3      0.2      0.0    137.0       52    385.4    384.5       96     0.000     0.000     0.000     0.000      106        0        0        0       17        3        3    18.639       96     30.5    5.687   -9.900     1.09    0.000    0.000       12        8     2014  Maize_Calibration.PRM
   Tot(9)       20        4     2015     56.0    896.6   1217.2   401.00      0.0     56.0      0.0      0.5      0.0     92.8       16    153.9    155.9       75     0.000     0.000     0.000     0.000       67        0        0        0       23       56       20     5.947       30      5.0    0.299   -9.900     0.14    0.000    0.000       12        8     2015  Maize_Calibration.PRM
  Tot(10)       20        4     2016    243.8    719.5   1159.4   403.00      0.0    242.1      1.7      0.0      0.0    126.2       46    369.4    369.0       89     0.000     0.000     0.000     0.000      106        0        0        0       18        4        8    17.072       91     30.0    5.121   -9.900     1.03    0.000    0.000       12        8     2016  Maize_Calibration.PRM
  Tot(11)       20        4     2017    184.2    665.1   1067.7   405.00      0.0    181.8      2.4      4.5      0.0    126.7       49    311.0    311.0       86     0.000     0.000     0.000     0.000      106        0        0        0       20       10       12    15.909       83     30.4    4.839   -9.900     1.11    0.000    0.000       12        8     2017  Maize_Calibration.PRM
  Tot(12)       20        4     2018    214.9    595.4    932.4   408.00      0.0    212.5      2.4      0.0      0.0    130.5       56    295.5    294.4       93     0.000     0.000     0.000     0.000      106        0        0        0       29        2        4    15.849       92     30.2    4.784   -9.900     1.12    0.000    0.000       12        8     2018  Maize_Calibration.PRM
  Tot(13)       20        4     2019    138.9    657.3    961.0   410.00      0.0    137.9      1.0      0.0      0.0    102.1       37    281.6    282.1       89     0.000     0.000     0.000     0.000      106        0        0        0       30        9        7    14.117       89     30.6    4.317   -9.900     1.13    0.000    0.000       12        8     2019  Maize_Calibration.PRM
  Tot(14)       20        4     2020    274.5    525.7    987.9   412.00      0.0    271.1      3.4     14.7      0.0    139.3       74    308.9    309.5      100     0.000     0.000     0.000     0.000      106        0        0        0       25        0        0    18.402      100     30.1    5.532   -9.900     1.23    0.000    0.000       12        8     2020  Maize_Calibration.PRM
  Tot(15)       20        4     2021    201.9    596.7   1002.9   414.00      0.0    201.4      0.5      0.0      0.0    123.8       50    290.6    288.9      100     0.000     0.000     0.000     0.000      106        0        0        0       26        4        0    16.389       99     30.2    4.941   -9.900     1.19    0.000    0.000       12        8     2021  Maize_Calibration.PRM
