AquaCrop 7.0 (August 2022) - Output created on (date) : 13-10-2022   at (time) : 17:26:08

    RunNr     Day1   Month1    Year1     Rain      ETo       GD     CO2      Irri   Infilt   Runoff    Drain   Upflow        E     E/Ex       Tr      TrW   Tr/Trx    SaltIn   SaltOut    SaltUp  SaltProf     Cycle   SaltStr  FertStr  WeedStr  TempStr   ExpStr   StoStr  BioMass  Brelative   HI    Y(dry)  Y(fresh)    WPet      Bin     Bout     DayN   MonthN    YearN
                                           mm       mm  degC.day    ppm        mm       mm       mm       mm       mm       mm        %       mm       mm        %    ton/ha    ton/ha    ton/ha    ton/ha      days       %        %        %        %        %        %    ton/ha        %       %    ton/ha   ton/ha    kg/m3   ton/ha   ton/ha
   Tot(1)       20        4     2008    402.8    758.7   1679.9   385.59      0.0    336.2     66.6     11.7      0.0    160.2       57    291.8    291.0       58     0.000     0.000     0.000     0.000      120        0        0        0        6       53       30     8.719       55     47.6    4.152   16.606     0.92    0.000    0.000       22        8     2008  Maize_SingleRun_Calibration.PRO
