AquaCrop 6.1 (May 2018) - Output created on (date) : 29/07/2022   at (time) : 17:56:33
Soil Water Content (WC) at various depths (at center of compartments)

** Run number:  1
                 at depth (m):      0.05        0.15        0.25        0.35        0.45        0.55        0.65        0.75        0.85        0.95        1.05        1.15
   Day Month  Year   DAP Stage   WC1(vol%)   WC2(vol%)   WC3(vol%)   WC4(vol%)   WC5(vol%)   WC6(vol%)   WC7(vol%)   WC8(vol%)   WC9(vol%)  WC10(vol%)  WC11(vol%)  WC12(vol%)
     2     7  2009     1    1       24.7        21.1        21.1        24.2        24.2        24.2        24.2        24.2        24.2        25.0        25.0        25.0
     3     7  2009     2    1       18.1        21.8        21.5        24.5        24.4        24.3        24.3        24.3        24.3        25.1        25.0        25.0
     4     7  2009     3    1       15.9        21.3        21.2        24.3        24.3        24.3        24.3        24.3        24.3        25.1        25.1        25.1
     5     7  2009     4    1       27.1        21.1        21.1        24.3        24.2        24.2        24.2        24.2        24.2        25.0        25.0        25.0
     6     7  2009     5    1       18.5        22.2        21.7        24.7        24.5        24.4        24.4        24.3        24.3        25.1        25.1        25.1
     7     7  2009     6    1       15.8        21.4        21.3        24.4        24.4        24.4        24.4        24.3        24.3        25.1        25.1        25.1
     8     7  2009     7    2       14.3        21.2        21.1        24.3        24.3        24.3        24.3        24.3        24.3        25.1        25.1        25.1
     9     7  2009     8    2       12.9        21.1        21.1        24.2        24.2        24.2        24.2        24.2        24.2        25.0        25.0        25.0
    10     7  2009     9    2       12.0        21.1        21.1        24.2        24.2        24.2        24.2        24.2        24.2        25.0        25.0        25.0
    11     7  2009    10    2       12.2        21.1        21.1        24.2        24.2        24.2        24.2        24.2        24.2        25.0        25.0        25.0
    12     7  2009    11    2       12.7        21.1        21.1        24.2        24.2        24.2        24.2        24.2        24.2        25.0        25.0        25.0
    13     7  2009    12    2       23.2        21.1        21.1        24.2        24.2        24.2        24.2        24.2        24.2        25.0        25.0        25.0
    14     7  2009    13    2       22.0        21.5        21.3        24.4        24.3        24.3        24.3        24.2        24.2        25.0        25.0        25.0
    15     7  2009    14    2       25.4        21.3        21.3        24.4        24.3        24.3        24.3        24.3        24.3        25.1        25.0        25.0
    16     7  2009    15    2       20.3        22.0        21.6        24.6        24.5        24.5        24.4        24.4        24.3        25.1        25.1        25.1
    17     7  2009    16    2       17.9        21.3        21.2        24.4        24.4        24.4        24.3        24.3        24.3        25.1        25.1        25.1
    18     7  2009    17    2       16.3        21.2        21.1        24.3        24.3        24.3        24.3        24.3        24.3        25.1        25.1        25.1
    19     7  2009    18    2       15.2        21.1        21.1        24.2        24.2        24.2        24.2        24.2        24.2        25.0        25.0        25.0
    20     7  2009    19    2       14.4        21.1        21.1        24.2        24.2        24.2        24.2        24.2        24.2        25.0        25.0        25.0
    21     7  2009    20    2       19.2        21.1        21.1        24.2        24.2        24.2        24.2        24.2        24.2        25.0        25.0        25.0
    22     7  2009    21    2       15.7        21.1        21.1        24.2        24.2        24.2        24.2        24.2        24.2        25.0        25.0        25.0
    23     7  2009    22    2       13.5        21.1        21.1        24.2        24.2        24.2        24.2        24.2        24.2        25.0        25.0        25.0
    24     7  2009    23    2       14.4        21.1        21.1        24.2        24.2        24.2        24.2        24.2        24.2        25.0        25.0        25.0
    25     7  2009    24    2       15.6        21.1        21.1        24.2        24.2        24.2        24.2        24.2        24.2        25.0        25.0        25.0
    26     7  2009    25    2       12.5        21.1        21.1        24.2        24.2        24.2        24.2        24.2        24.2        25.0        25.0        25.0
    27     7  2009    26    2       27.3        21.1        21.1        24.2        24.2        24.2        24.2        24.2        24.2        25.0        25.0        25.0
    28     7  2009    27    2       19.0        22.3        21.7        24.7        24.5        24.4        24.4        24.3        24.3        25.1        25.1        25.1
    29     7  2009    28    2       21.2        21.4        21.3        24.4        24.4        24.4        24.4        24.3        24.3        25.1        25.1        25.1
    30     7  2009    29    2       26.7        21.2        21.1        24.3        24.3        24.3        24.3        24.3        24.3        25.1        25.1        25.1
    31     7  2009    30    2       24.4        22.2        21.7        24.7        24.5        24.4        24.4        24.3        24.3        25.1        25.1        25.1
     1     8  2009    31    2       18.2        21.9        21.6        24.7        24.6        24.5        24.4        24.4        24.4        25.2        25.2        25.1
     2     8  2009    32    2       24.3        21.3        21.2        24.4        24.4        24.4        24.4        24.3        24.3        25.1        25.1        25.1
     3     8  2009    33    2       29.6        21.8        21.4        24.5        24.4        24.4        24.3        24.3        24.3        25.1        25.1        25.1
     4     8  2009    34    2       19.1        22.8        22.0        25.1        24.8        24.6        24.5        24.5        24.4        25.2        25.2        25.2
     5     8  2009    35    2       24.8        21.5        21.3        24.6        24.6        24.5        24.5        24.4        24.4        25.2        25.2        25.2
     6     8  2009    36    2       28.4        21.9        21.5        24.6        24.5        24.4        24.4        24.4        24.4        25.2        25.2        25.1
     7     8  2009    37    2       26.2        22.7        21.9        25.0        24.8        24.6        24.5        24.5        24.4        25.2        25.2        25.2
     8     8  2009    38    2       25.7        22.4        21.8        25.0        24.8        24.7        24.6        24.5        24.5        25.3        25.2        25.2
     9     8  2009    39    2       22.4        22.3        21.7        24.9        24.7        24.6        24.6        24.5        24.5        25.3        25.2        25.2
    10     8  2009    40    2       18.1        21.4        21.4        24.6        24.5        24.5        24.5        24.4        24.4        25.2        25.2        25.2
    11     8  2009    41    2       24.7        21.2        21.2        24.3        24.3        24.3        24.3        24.3        24.3        25.1        25.1        25.1
    12     8  2009    42    2       30.6        21.8        21.5        24.5        24.4        24.4        24.3        24.3        24.3        25.1        25.1        25.1
    13     8  2009    43    2       28.3        23.0        22.1        25.2        24.9        24.7        24.6        24.5        24.5        25.2        25.2        25.2
    14     8  2009    44    2       19.1        22.8        22.1        25.2        25.0        24.8        24.7        24.6        24.6        25.4        25.3        25.3
    15     8  2009    45    2       21.3        21.6        21.4        24.6        24.6        24.5        24.5        24.5        24.5        25.3        25.2        25.2
    16     8  2009    46    2       16.5        21.2        21.2        24.3        24.3        24.3        24.3        24.3        24.3        25.1        25.1        25.1
    17     8  2009    47    2       19.6        21.1        21.1        24.3        24.2        24.2        24.2        24.2        24.2        25.1        25.0        25.0
    18     8  2009    48    2       22.1        21.1        21.1        24.2        24.2        24.2        24.2        24.2        24.2        25.0        25.0        25.0
    19     8  2009    49    2       23.8        21.3        21.2        24.3        24.3        24.2        24.2        24.2        24.2        25.0        25.0        25.0
    20     8  2009    50    2       17.7        21.7        21.4        24.5        24.4        24.3        24.3        24.3        24.3        25.1        25.1        25.0
    21     8  2009    51    2       14.7        21.3        21.2        24.3        24.3        24.3        24.3        24.3        24.3        25.1        25.1        25.1
    22     8  2009    52    2       26.2        21.1        21.1        24.2        24.2        24.2        24.2        24.2        24.2        25.0        25.0        25.0
    23     8  2009    53    2       25.4        22.1        21.6        24.7        24.5        24.4        24.4        24.3        24.3        25.1        25.1        25.1
    24     8  2009    54    2       30.6        22.2        21.7        24.8        24.6        24.5        24.5        24.4        24.4        25.2        25.2        25.1
    25     8  2009    55    2       37.7        23.1        22.2        25.3        24.9        24.8        24.7        24.6        24.5        25.3        25.3        25.2
    26     8  2009    56    2       20.7        24.3        23.0        26.2        25.6        25.3        25.1        24.9        24.8        25.6        25.5        25.4
    27     8  2009    57    2       25.6        21.9        21.6        24.9        24.9        24.8        24.8        24.7        24.7        25.5        25.4        25.4
    28     8  2009    58    2       34.6        22.2        21.6        24.8        24.7        24.6        24.5        24.5        24.5        25.3        25.3        25.3
    29     8  2009    59    2       20.0        23.7        22.6        25.7        25.2        24.9        24.8        24.7        24.6        25.4        25.4        25.3
    30     8  2009    60    2       16.8        21.8        21.5        24.8        24.7        24.7        24.6        24.6        24.5        25.3        25.3        25.3
    31     8  2009    61    2       27.3        21.3        21.2        24.4        24.4        24.4        24.4        24.4        24.4        25.2        25.2        25.2
     1     9  2009    62    2       18.3        22.3        21.7        24.8        24.6        24.5        24.4        24.4        24.4        25.2        25.1        25.1
     2     9  2009    63    2       15.0        21.4        21.3        24.5        24.4        24.4        24.4        24.4        24.3        25.1        25.1        25.1
     3     9  2009    64    2       24.5        21.2        21.1        24.3        24.3        24.3        24.3        24.3        24.3        25.1        25.1        25.1
     4     9  2009    65    2       17.5        21.8        21.4        24.5        24.4        24.3        24.3        24.3        24.3        25.1        25.1        25.1
     5     9  2009    66    2       20.4        21.3        21.2        24.3        24.3        24.3        24.3        24.3        24.3        25.1        25.1        25.1
     6     9  2009    67    3       34.9        21.1        21.1        24.3        24.2        24.2        24.2        24.2        24.2        25.0        25.0        25.0
     7     9  2009    68    3       23.6        23.6        22.8        25.7        25.4        24.8        24.8        24.6        24.5        25.3        25.3        25.2
     8     9  2009    69    3       18.1        21.7        21.7        25.1        24.9        24.8        24.7        24.7        24.6        25.4        25.3        25.3
     9     9  2009    70    3       29.8        21.3        21.3        24.5        24.5        24.4        24.4        24.4        24.4        25.2        25.2        25.2
    10     9  2009    71    3       31.1        22.8        22.0        25.0        24.8        24.6        24.5        24.5        24.4        25.2        25.2        25.2
    11     9  2009    72    3       29.6        23.3        22.3        25.5        25.1        24.9        24.7        24.7        24.6        25.4        25.3        25.3
    12     9  2009    73    3       19.1        23.1        22.2        25.4        25.1        24.9        24.8        24.7        24.7        25.4        25.4        25.4
    13     9  2009    74    3       16.0        21.6        21.4        24.6        24.6        24.6        24.6        24.5        24.5        25.3        25.3        25.3
    14     9  2009    75    3       25.0        21.2        21.2        24.4        24.4        24.3        24.3        24.3        24.3        25.1        25.1        25.1
    15     9  2009    76    3       17.2        21.9        21.5        24.6        24.4        24.4        24.4        24.3        24.3        25.1        25.1        25.1
    16     9  2009    77    3       28.6        21.3        21.2        24.4        24.4        24.3        24.3        24.3        24.3        25.1        25.1        25.1
    17     9  2009    78    3       19.0        22.6        21.9        24.9        24.7        24.5        24.5        24.4        24.4        25.2        25.1        25.1
    18     9  2009    79    3       25.5        21.5        21.3        24.5        24.5        24.5        24.4        24.4        24.4        25.2        25.1        25.1
    19     9  2009    80    4       18.3        22.0        21.6        24.7        24.5        24.5        24.4        24.4        24.4        25.2        25.1        25.1
    20     9  2009    81    4       15.0        21.3        21.2        24.4        24.4        24.4        24.3        24.3        24.3        25.1        25.1        25.1
    21     9  2009    82    4       12.8        21.2        21.1        24.3        24.3        24.3        24.3        24.3        24.3        25.1        25.1        25.1
    22     9  2009    83    4       15.7        21.1        21.1        24.2        24.2        24.2        24.2        24.2        24.2        25.0        25.0        25.0
    23     9  2009    84    4       12.3        20.0        21.1        24.2        24.2        24.2        24.2        24.2        24.2        25.0        25.0        25.0
    24     9  2009    85    4       11.0        18.9        21.1        24.2        24.2        24.2        24.2        24.2        24.2        25.0        25.0        25.0
    25     9  2009    86    4       26.2        18.9        21.1        24.2        24.2        24.2        24.2        24.2        24.2        25.0        25.0        25.0
    26     9  2009    87    4       17.6        21.5        21.3        24.4        24.3        24.3        24.3        24.2        24.2        25.0        25.0        25.0
    27     9  2009    88    4       13.9        21.2        21.2        24.3        24.3        24.3        24.3        24.2        24.2        25.0        25.0        25.0
    28     9  2009    89    4       12.3        20.1        21.1        24.2        24.2        24.2        24.2        24.2        24.2        25.0        25.0        25.0
    29     9  2009    90    4       11.6        19.0        21.1        24.2        24.2        24.2        24.2        24.2        24.2        25.0        25.0        25.0
    30     9  2009    91    4       10.9        17.6        21.1        24.2        24.2        24.2        24.2        24.2        24.2        25.0        25.0        25.0
     1    10  2009    92    4       10.4        16.4        21.1        24.2        24.2        24.2        24.2        24.2        24.2        25.0        25.0        25.0
     2    10  2009    93    4       10.1        15.4        21.1        24.2        24.2        24.2        24.2        24.2        24.2        25.0        25.0        25.0
     3    10  2009    94    4        9.8        14.3        21.1        24.2        24.2        24.2        24.2        24.2        24.2        25.0        25.0        25.0
     4    10  2009    95    4        9.5        12.8        21.1        24.2        24.2        24.2        24.2        24.2        24.2        25.0        25.0        25.0
     5    10  2009    96    4        9.3        11.5        21.1        24.2        24.2        24.2        24.2        24.2        24.2        25.0        25.0        25.0
     6    10  2009    97    4        9.1        11.5        20.0        24.2        24.2        24.2        24.2        24.2        24.2        25.0        25.0        25.0
     7    10  2009    98    4        8.9        11.5        18.5        24.2        24.2        24.2        24.2        24.2        24.2        25.0        25.0        25.0
     8    10  2009    99    4        8.8        11.5        17.4        24.2        24.2        24.2        24.2        24.2        24.2        25.0        25.0        25.0
     9    10  2009   100    4        8.6        11.5        16.3        24.2        24.2        24.2        24.2        24.2        24.2        25.0        25.0        25.0
    10    10  2009   101    4        8.5        11.5        15.2        24.2        24.2        24.2        24.2        24.2        24.2        25.0        25.0        25.0
    11    10  2009   102    4        8.4        11.5        14.1        24.2        24.2        24.2        24.2        24.2        24.2        25.0        25.0        25.0
    12    10  2009   103    4        8.2        11.5        12.9        24.2        24.2        24.2        24.2        24.2        24.2        25.0        25.0        25.0
    13    10  2009   104    4        8.1        11.5        11.9        24.2        24.2        24.2        24.2        24.2        24.2        25.0        25.0        25.0
    14    10  2009   105    4        7.9        11.5        11.9        23.1        24.2        24.2        24.2        24.2        24.2        25.0        25.0        25.0
    15    10  2009   106    4        7.8        11.5        11.9        22.0        24.2        24.2        24.2        24.2        24.2        25.0        25.0        25.0
    16    10  2009   107    4        7.6        11.5        11.9        20.8        24.2        24.2        24.2        24.2        24.2        25.0        25.0        25.0
    17    10  2009   108    4        9.3        11.5        11.9        20.0        24.2        24.2        24.2        24.2        24.2        25.0        25.0        25.0
    18    10  2009   109    4       10.8        11.5        11.9        19.2        24.2        24.2        24.2        24.2        24.2        25.0        25.0        25.0
    19    10  2009   110    4        9.1        11.5        11.9        18.2        24.2        24.2        24.2        24.2        24.2        25.0        25.0        25.0
    20    10  2009   111    4        8.9        11.5        11.9        17.0        24.2        24.2        24.2        24.2        24.2        25.0        25.0        25.0
    21    10  2009   112    4        8.6        11.5        11.9        15.8        24.2        24.2        24.2        24.2        24.2        25.0        25.0        25.0
    22    10  2009   113    4        8.3        11.5        11.9        14.8        24.2        24.2        24.2        24.2        24.2        25.0        25.0        25.0
    23    10  2009   114    4        8.1        11.5        11.9        14.8        23.1        24.2        24.2        24.2        24.2        25.0        25.0        25.0
    24    10  2009   115    4        7.8        11.5        11.9        14.8        22.0        24.2        24.2        24.2        24.2        25.0        25.0        25.0
    25    10  2009   116    4        7.7        11.5        11.9        14.8        21.3        24.2        24.2        24.2        24.2        25.0        25.0        25.0
    26    10  2009   117    4        7.5        11.5        11.9        14.8        20.5        24.2        24.2        24.2        24.2        25.0        25.0        25.0
    27    10  2009   118    4        7.4        11.5        11.9        14.8        19.8        24.2        24.2        24.2        24.2        25.0        25.0        25.0
    28    10  2009   119    4        7.2        11.5        11.9        14.8        19.1        24.2        24.2        24.2        24.2        25.0        25.0        25.0
    29    10  2009   120    4        7.0        11.5        11.9        14.8        18.5        24.2        24.2        24.2        24.2        25.0        25.0        25.0
    30    10  2009   121    4        6.8        11.5        11.9        14.8        17.9        24.2        24.2        24.2        24.2        25.0        25.0        25.0
    31    10  2009   122    4        6.7        11.5        11.9        14.8        17.4        24.2        24.2        24.2        24.2        25.0        25.0        25.0
     1    11  2009   123    4        6.5        11.5        11.9        14.8        16.9        24.2        24.2        24.2        24.2        25.0        25.0        25.0
     2    11  2009   124    4        6.4        11.5        11.9        14.8        16.6        24.2        24.2        24.2        24.2        25.0        25.0        25.0
     3    11  2009   125    4        6.3        11.5        11.9        14.8        16.4        24.2        24.2        24.2        24.2        25.0        25.0        25.0
     4    11  2009   126    4        6.3        11.4        11.9        14.8        16.2        24.2        24.2        24.2        24.2        25.0        25.0        25.0
     5    11  2009   127    4        6.3        11.2        11.9        14.8        16.1        24.2        24.2        24.2        24.2        25.0        25.0        25.0
     6    11  2009   128    4        6.3        11.0        11.9        14.8        16.1        24.2        24.2        24.2        24.2        25.0        25.0        25.0
     7    11  2009   129    4        6.3        10.9        11.9        14.8        16.1        24.2        24.2        24.2        24.2        25.0        25.0        25.0
     8    11  2009    -9    0        6.3        10.7        11.9        14.8        16.1        24.2        24.2        24.2        24.2        25.0        25.0        25.0
     9    11  2009    -9    0        6.3        10.6        11.9        14.8        16.1        24.2        24.2        24.2        24.2        25.0        25.0        25.0
    10    11  2009    -9    0        6.3        10.4        11.9        14.8        16.1        24.2        24.2        24.2        24.2        25.0        25.0        25.0

Legend

DAP          : Days after planting
Stage        : 0: before/after planting
Stage        : 1: emergence or transplant recovery
Stage        : 2: vegetative stage
Stage        : 3: flowering
Stage        : 4: yield formation and ripening
