AquaCrop 6.1 (May 2018) - Output created on (date) : 29/07/2022   at (time) : 17:54:07
Climate input data

** Run number:  1
   Day Month  Year   DAP Stage     Rain       ETo      Tmin      Tavg      Tmax      CO2
                                    mm        mm        °C        °C        °C       ppm
     2     7  2009     1    1       9.3       4.0      22.0      28.4      34.8    387.43
     3     7  2009     2    1       0.0       3.9      24.1      29.7      35.3    387.43
     4     7  2009     3    1       0.0       3.9      26.4      31.9      37.5    387.43
     5     7  2009     4    1      14.0       2.0      25.5      27.1      28.7    387.43
     6     7  2009     5    1       0.0       3.7      26.0      31.2      36.4    387.43
     7     7  2009     6    1       0.0       3.6      25.2      30.0      34.9    387.43
     8     7  2009     7    2       0.0       3.3      26.2      30.2      34.2    387.43
     9     7  2009     8    2       0.0       3.9      27.0      32.1      37.3    387.43
    10     7  2009     9    2       0.0       3.5      28.0      32.3      36.5    387.43
    11     7  2009    10    2       4.8       4.2      24.0      30.3      36.6    387.43
    12     7  2009    11    2       4.8       3.9      27.0      32.3      37.6    387.43
    13     7  2009    12    2      14.3       3.3      25.0      29.4      33.8    387.43
    14     7  2009    13    2       4.8       3.8      25.5      30.6      35.7    387.43
    15     7  2009    14    2       9.5       3.7      22.6      27.9      33.1    387.43
    16     7  2009    15    2       2.6       4.1      23.3      29.4      35.5    387.43
    17     7  2009    16    2       0.0       3.9      25.0      30.4      35.7    387.43
    18     7  2009    17    2       0.0       3.7      24.6      29.6      34.6    387.43
    19     7  2009    18    2       0.0       3.1      27.1      30.4      33.7    387.43
    20     7  2009    19    2       2.6       3.1      27.3      30.9      34.4    387.43
    21     7  2009    20    2       9.6       4.3      19.9      27.2      34.5    387.43
    22     7  2009    21    2       0.0       3.7      25.0      29.8      34.5    387.43
    23     7  2009    22    2       0.0       3.8      26.2      31.1      36.1    387.43
    24     7  2009    23    2       4.8       3.6      27.5      31.8      36.0    387.43
    25     7  2009    24    2       4.8       3.3      27.4      31.0      34.6    387.43
    26     7  2009    25    2       0.0       3.5      27.0      31.1      35.1    387.43
    27     7  2009    26    2      19.4       3.7      24.5      29.4      34.2    387.43
    28     7  2009    27    2       0.0       3.4      26.0      30.1      34.2    387.43
    29     7  2009    28    2       6.5       3.8      22.4      27.8      33.1    387.43
    30     7  2009    29    2      12.9       4.2      22.5      28.5      34.5    387.43
    31     7  2009    30    2       6.5       3.7      25.0      29.6      34.2    387.43
     1     8  2009    31    2       0.0       3.6      26.3      30.5      34.8    387.43
     2     8  2009    32    2      11.2       4.0      23.3      28.7      34.1    387.43
     3     8  2009    33    2      16.8       4.2      20.8      27.2      33.6    387.43
     4     8  2009    34    2       0.0       3.9      24.5      29.4      34.3    387.43
     5     8  2009    35    2      11.2       4.1      24.3      29.7      35.1    387.43
     6     8  2009    36    2      12.7       3.4      25.5      29.2      32.9    387.43
     7     8  2009    37    2       8.5       3.7      23.9      28.4      33.0    387.43
     8     8  2009    38    2       8.5       3.7      24.0      28.5      33.0    387.43
     9     8  2009    39    2       4.2       3.6      24.0      28.3      32.5    387.43
    10     8  2009    40    2       0.0       3.5      26.0      29.9      33.8    387.43
    11     8  2009    41    2      11.8       4.0      23.0      28.3      33.5    387.43
    12     8  2009    42    2      17.8       3.8      24.2      28.9      33.6    387.43
    13     8  2009    43    2      11.8       4.2      21.5      27.1      32.8    387.43
    14     8  2009    44    2       0.0       3.4      26.3      29.7      33.1    387.43
    15     8  2009    45    2       6.8       4.0      21.6      26.8      32.0    387.43
    16     8  2009    46    2       0.0       4.4      19.8      26.3      32.8    387.43
    17     8  2009    47    2       7.5       4.0      24.0      28.8      33.6    387.43
    18     8  2009    48    2       7.5       4.2      23.9      29.1      34.3    387.43
    19     8  2009    49    2       7.5       3.9      21.8      26.7      31.6    387.43
    20     8  2009    50    2       0.0       3.8      26.6      30.6      34.6    387.43
    21     8  2009    51    2       0.0       4.0      25.5      30.0      34.5    387.43
    22     8  2009    52    2      16.9       4.2      22.0      27.1      32.2    387.43
    23     8  2009    53    2       8.5       4.0      22.4      27.2      32.0    387.43
    24     8  2009    54    2      16.9       3.6      24.7      28.6      32.5    387.43
    25     8  2009    55    2      33.8       3.7      23.5      27.6      31.8    387.43
    26     8  2009    56    2       0.0       3.5      24.8      28.4      32.0    387.43
    27     8  2009    57    2      11.0       4.0      26.9      31.1      35.4    387.43
    28     8  2009    58    2      27.6       3.9      23.3      27.6      32.0    387.43
    29     8  2009    59    2       0.0       3.7      25.5      29.4      33.2    387.43
    30     8  2009    60    2       0.0       4.3      25.5      30.1      34.8    387.43
    31     8  2009    61    2      16.5       4.3      21.7      26.9      32.1    387.43
     1     9  2009    62    2       0.0       4.0      25.0      29.3      33.5    387.43
     2     9  2009    63    2       0.0       4.6      23.0      28.5      34.0    387.43
     3     9  2009    64    2      14.3       4.0      22.0      26.5      31.0    387.43
     4     9  2009    65    2       0.0       4.1      25.5      29.8      34.0    387.43
     5     9  2009    66    2       7.2       3.9      22.7      26.9      31.1    387.43
     6     9  2009    67    3      28.5       3.5      24.0      27.4      30.7    387.43
     7     9  2009    68    3       5.7       4.2      24.8      29.3      33.8    387.43
     8     9  2009    69    3       0.0       3.4      26.0      29.0      32.0    387.43
     9     9  2009    70    3      17.1       3.1      24.4      26.9      29.4    387.43
    10     9  2009    71    3      17.1       4.1      24.5      28.6      32.8    387.43
    11     9  2009    72    3      13.4       4.0      26.0      29.8      33.5    387.43
    12     9  2009    73    3       0.0       3.7      25.6      29.0      32.4    387.43
    13     9  2009    74    3       0.0       4.2      25.5      29.6      33.7    387.43
    14     9  2009    75    3      13.4       3.6      26.7      29.8      32.8    387.43
    15     9  2009    76    3       0.0       4.6      25.4      30.2      35.0    387.43
    16     9  2009    77    3      18.2       4.5      20.6      25.9      31.2    387.43
    17     9  2009    78    3       0.0       3.6      23.8      27.0      30.1    387.43
    18     9  2009    79    3      12.1       4.0      25.0      28.9      32.8    387.43
    19     9  2009    80    4       0.0       3.6      25.5      28.4      31.3    387.43
    20     9  2009    81    4       0.0       4.3      26.7      30.6      34.6    387.43
    21     9  2009    82    4       0.0       4.0      27.8      31.1      34.5    387.43
    22     9  2009    83    4       6.5       3.4      24.9      27.6      30.3    387.43
    23     9  2009    84    4       0.0       4.3      24.6      28.8      33.0    387.43
    24     9  2009    85    4       0.0       4.3      26.0      29.9      33.8    387.43
    25     9  2009    86    4      19.5       3.6      23.8      26.9      30.0    387.43
    26     9  2009    87    4       0.0       4.4      25.5      29.8      34.1    387.43
    27     9  2009    88    4       0.0       5.2      24.0      29.8      35.5    387.43
    28     9  2009    89    4       0.0       5.2      27.0      32.2      37.4    387.43
    29     9  2009    90    4       0.0       4.6      28.4      32.5      36.6    387.43
    30     9  2009    91    4       0.0       5.6      22.3      29.0      35.6    387.43
     1    10  2009    92    4       0.0       4.5      26.7      30.6      34.5    387.43
     2    10  2009    93    4       0.0       4.2      27.0      30.4      33.8    387.43
     3    10  2009    94    4       0.0       4.7      27.7      32.0      36.3    387.43
     4    10  2009    95    4       0.0       6.2      23.5      30.8      38.1    387.43
     5    10  2009    96    4       0.0       5.3      27.0      32.3      37.6    387.43
     6    10  2009    97    4       0.0       4.6      28.0      32.0      36.0    387.43
     7    10  2009    98    4       0.0       6.8      20.5      29.6      38.7    387.43
     8    10  2009    99    4       0.0       4.5      24.0      28.2      32.4    387.43
     9    10  2009   100    4       0.0       5.0      27.0      31.8      36.5    387.43
    10    10  2009   101    4       0.0       5.0      27.0      31.8      36.6    387.43
    11    10  2009   102    4       0.0       5.2      27.4      32.5      37.5    387.43
    12    10  2009   103    4       0.0       5.7      26.2      32.3      38.4    387.43
    13    10  2009   104    4       0.0       4.8      26.0      30.6      35.1    387.43
    14    10  2009   105    4       0.0       5.4      25.4      31.0      36.6    387.43
    15    10  2009   106    4       0.0       5.6      25.0      31.0      37.0    387.43
    16    10  2009   107    4       0.0       6.2      24.2      31.6      39.0    387.43
    17    10  2009   108    4       5.3       4.2      26.0      29.6      33.3    387.43
    18    10  2009   109    4       5.3       4.5      26.0      30.0      34.0    387.43
    19    10  2009   110    4       0.0       5.4      26.0      31.3      36.5    387.43
    20    10  2009   111    4       0.0       6.4      25.9      32.5      39.0    387.43
    21    10  2009   112    4       0.0       7.1      21.5      30.4      39.4    387.43
    22    10  2009   113    4       0.0       6.0      25.4      32.0      38.7    387.43
    23    10  2009   114    4       0.0       6.9      21.2      30.4      39.6    387.43
    24    10  2009   115    4       0.0       7.0      20.7      29.8      38.8    387.43
    25    10  2009   116    4       0.0       4.4      26.4      30.2      34.0    387.43
    26    10  2009   117    4       1.2       6.0      23.0      30.1      37.2    387.43
    27    10  2009   118    4       0.0       5.0      27.5      32.3      37.0    387.43
    28    10  2009   119    4       0.0       5.7      26.5      32.6      38.8    387.43
    29    10  2009   120    4       0.0       5.6      27.4      33.2      39.0    387.43
    30    10  2009   121    4       0.0       5.9      22.4      29.6      36.8    387.43
    31    10  2009   122    4       0.0       6.3      20.4      28.8      37.2    387.43
     1    11  2009   123    4       0.0       6.6      21.5      30.4      39.3    387.43
     2    11  2009   124    4       0.5       5.4      23.6      29.9      36.1    387.43
     3    11  2009   125    4       0.5       3.8      23.5      26.9      30.4    387.43
     4    11  2009   126    4       0.3       5.5      25.2      31.3      37.3    387.43
     5    11  2009   127    4       0.0       6.0      25.5      32.3      39.0    387.43
     6    11  2009   128    4       0.0       6.0      26.7      33.2      39.7    387.43
     7    11  2009   129    4       0.0       6.3      22.8      30.9      39.0    387.43
     8    11  2009    -9    0       0.0       6.5      20.8      30.0      39.2    387.43
     9    11  2009    -9    0       0.0       6.2      23.0      31.0      39.0    387.43
    10    11  2009    -9    0       0.0       6.1      22.6      30.6      38.5    387.43

Legend

DAP          : Days after planting
Stage        : 0: before/after planting
Stage        : 1: emergence or transplant recovery
Stage        : 2: vegetative stage
Stage        : 3: flowering
Stage        : 4: yield formation and ripening
Rain         : Rainfall
ETo          : Reference evapotranspiration
Tmin         : Minimum air temperature
Tavg         : Average air temperature
Tmax         : Maximum air temperature
CO2          : Atmospheric CO2 concentration
