AquaCrop 6.1 (May 2018) - Output created on (date) : 29/07/2022   at (time) : 17:54:07
Soil Water content in soil profile (WC) and root zone (Wr)

** Run number:  1   -- Water content in soil profile (WCTot layer: 0.00 - 1.10 m) and root zone (Wr with Zx = 0.80 m)
   Day Month  Year   DAP Stage     WCTot   Wr(Zx)      Z       Wr    Wr(SAT)    Wr(FC)   Wr(exp)   Wr(sto)   Wr(sen)   Wr(PWP)
                                     mm       mm       m       mm        mm        mm        mm        mm        mm        mm
     2     7  2009     1    1     316.2    263.1    0.30    115.9     141.6     111.0     105.5      83.2      84.1      72.0
     3     7  2009     2    1     311.9    258.8    0.30    111.4     141.6     111.0     105.5      83.1      84.1      72.0
     4     7  2009     3    1     308.1    255.0    0.30    107.2     141.6     111.0     105.5      83.1      84.1      72.0
     5     7  2009     4    1     319.6    266.5    0.30    118.7     141.6     111.0     105.5      81.4      84.1      72.0
     6     7  2009     5    1     315.2    262.0    0.30    114.1     141.6     111.0     105.5      82.9      84.1      72.0
     7     7  2009     6    1     310.7    257.6    0.30    109.2     141.6     111.0     105.5      82.8      84.1      72.0
     8     7  2009     7    2     307.2    254.1    0.30    105.6     141.6     111.0     103.0      82.6      82.6      72.0
     9     7  2009     8    2     304.0    250.9    0.30    102.7     141.6     111.0     103.9      83.1      83.1      72.0
    10     7  2009     9    2     301.7    248.6    0.30    100.7     141.6     111.0     103.3      82.7      82.7      72.0
    11     7  2009    10    2     301.5    248.4    0.30    100.7     141.6     111.0     104.4      83.4      83.4      72.0
    12     7  2009    11    2     301.7    248.6    0.30    101.1     141.6     111.0     103.9      83.1      83.1      72.0
    13     7  2009    12    2     312.2    259.1    0.30    111.7     141.6     111.0     103.0      82.6      82.6      72.0
    14     7  2009    13    2     312.7    259.6    0.31    114.7     144.8     113.5     106.1      84.9      84.9      73.6
    15     7  2009    14    2     318.0    264.9    0.31    122.8     148.2     116.2     108.5      86.8      86.8      75.4
    16     7  2009    15    2     316.1    263.0    0.32    123.3     151.6     118.9     111.6      89.2      89.2      77.1
    17     7  2009    16    2     313.0    259.9    0.33    122.3     155.0     121.5     113.7      90.9      90.9      78.8
    18     7  2009    17    2     310.4    257.2    0.34    122.0     158.2     124.0     115.8      92.7      92.7      80.5
    19     7  2009    18    2     308.2    255.1    0.34    122.5     161.5     126.6     117.2      93.9      93.9      82.1
    20     7  2009    19    2     306.8    253.7    0.35    123.9     164.6     129.0     119.5      95.8      95.8      83.7
    21     7  2009    20    2     311.2    258.1    0.36    130.9     167.8     131.5     123.8      98.9      98.9      85.3
    22     7  2009    21    2     306.8    253.7    0.36    129.1     170.8     133.9     125.0     100.0     100.0      86.9
    23     7  2009    22    2     303.0    249.9    0.37    127.7     173.9     136.3     127.4     101.9     101.9      88.4
    24     7  2009    23    2     303.7    250.6    0.37    130.9     176.9     138.7     129.3     103.5     103.5      89.9
    25     7  2009    24    2     304.8    251.7    0.38    134.3     179.9     141.0     130.9     104.9     104.9      91.5
    26     7  2009    25    2     301.2    248.1    0.39    133.1     182.8     143.3     133.4     106.8     106.8      93.0
    27     7  2009    26    2     316.5    263.4    0.39    150.7     185.7     145.6     135.9     108.8     108.8      94.4
    28     7  2009    27    2     312.7    259.6    0.40    149.1     188.6     147.8     137.4     110.1     110.1      95.9
    29     7  2009    28    2     314.9    261.8    0.41    153.1     191.3     149.8     140.0     112.0     112.0      97.1
    30     7  2009    29    2     322.9    269.8    0.41    162.9     194.0     151.7     142.6     113.9     113.9      98.4
    31     7  2009    30    2     324.8    271.7    0.42    166.4     196.6     153.6     143.4     114.7     114.7      99.6
     1     8  2009    31    2     320.0    266.9    0.42    162.7     199.3     155.5     145.0     116.0     116.0     100.8
     2     8  2009    32    2     325.2    272.0    0.43    169.1     201.9     157.4     147.5     117.9     117.9     102.0
     3     8  2009    33    2     335.2    282.0    0.44    181.1     204.4     159.2     149.7     119.5     119.5     103.2
     4     8  2009    34    2     328.6    275.3    0.44    175.5     207.0     161.1     150.8     120.5     120.5     104.3
     5     8  2009    35    2     331.8    278.6    0.45    179.1     209.6     162.9     152.9     122.1     122.1     105.5
     6     8  2009    36    2     336.3    283.0    0.45    186.0     212.1     164.7     153.1     122.5     122.5     106.6
     7     8  2009    37    2     336.8    283.5    0.46    188.9     214.6     166.5     155.4     124.2     124.2     107.8
     8     8  2009    38    2     337.1    283.8    0.46    189.3     217.1     168.3     157.1     125.6     125.6     108.9
     9     8  2009    39    2     331.9    278.5    0.47    186.0     219.6     170.1     158.5     126.7     126.7     110.1
    10     8  2009    40    2     323.1    269.7    0.47    179.7     222.0     171.8     159.9     127.9     127.9     111.2
    11     8  2009    41    2     326.4    273.1    0.48    185.5     224.5     173.6     162.7     129.9     129.9     112.3
    12     8  2009    42    2     336.7    283.4    0.49    198.5     226.9     175.3     163.9     130.9     130.9     113.4
    13     8  2009    43    2     341.0    287.8    0.49    203.9     229.3     177.1     166.4     132.8     132.8     114.5
    14     8  2009    44    2     332.8    279.4    0.50    195.8     231.7     178.8     166.1     132.9     132.9     115.6
    15     8  2009    45    2     329.4    275.9    0.50    194.5     234.2     180.7     169.3     135.2     135.2     116.9
    16     8  2009    46    2     319.4    266.0    0.51    187.9     236.8     183.0     172.5     137.6     137.6     118.5
    17     8  2009    47    2     318.8    265.5    0.51    190.5     239.4     185.2     173.7     138.8     138.8     120.2
    18     8  2009    48    2     319.3    266.1    0.52    193.9     242.1     187.5     176.3     140.9     140.9     121.8
    19     8  2009    49    2     320.8    267.6    0.52    198.1     244.7     189.7     177.7     142.3     142.3     123.4
    20     8  2009    50    2     315.3    262.2    0.53    195.2     247.2     192.0     179.6     143.9     143.9     125.0
    21     8  2009    51    2     310.1    257.0    0.53    192.4     249.8     194.2     182.2     146.0     146.0     126.6
    22     8  2009    52    2     321.4    268.2    0.54    206.0     252.4     196.4     184.8     148.1     148.1     128.2
    23     8  2009    53    2     324.7    271.5    0.54    211.6     254.9     198.6     186.4     149.5     149.5     129.8
    24     8  2009    54    2     336.8    283.6    0.55    225.8     257.5     200.8     187.4     150.7     150.7     131.4
    25     8  2009    55    2     365.1    311.9    0.55    254.8     260.0     203.0     189.7     152.6     152.6     133.0
    26     8  2009    56    2     352.5    298.9    0.56    242.6     262.5     205.1     191.2     154.0     154.0     134.5
    27     8  2009    57    2     349.5    295.9    0.56    241.0     265.0     207.3     194.6     156.5     156.5     136.1
    28     8  2009    58    2     362.6    308.9    0.57    257.5     267.5     209.4     196.4     158.0     158.0     137.6
    29     8  2009    59    2     348.9    295.3    0.57    246.1     269.6     211.3     197.6     159.2     159.2     139.0
    30     8  2009    60    2     334.4    280.8    0.58    234.1     272.1     213.4     201.3     161.9     161.9     140.5
    31     8  2009    61    2     336.8    283.3    0.58    239.2     274.5     215.5     203.3     163.6     163.6     142.0
     1     9  2009    62    2     325.4    271.9    0.59    230.6     277.0     217.6     204.5     164.8     164.8     143.6
     2     9  2009    63    2     315.6    262.3    0.59    223.4     279.4     219.7     208.2     167.5     167.5     145.1
     3     9  2009    64    2     322.3    269.0    0.60    232.4     281.9     221.8     208.5     168.2     168.2     146.6
     4     9  2009    65    2     315.6    262.3    0.60    227.3     284.2     223.3     210.1     169.4     169.4     147.6
     5     9  2009    66    2     316.9    263.7    0.61    229.5     286.3     224.1     210.3     169.7     169.7     148.0
     6     9  2009    67    3     340.3    287.1    0.61    253.8     288.4     225.0     210.0     169.6     169.6     148.5
     7     9  2009    68    3     339.2    286.0    0.62    253.6     290.6     225.8     212.8     171.4     171.4     149.0
     8     9  2009    69    3     330.8    277.4    0.62    245.7     292.7     226.7     211.2     170.5     170.5     149.5
     9     9  2009    70    3     338.1    284.7    0.63    253.8     294.8     227.5     211.1     170.6     170.6     149.9
    10     9  2009    71    3     345.7    292.4    0.63    262.4     296.9     228.4     214.8     173.0     173.0     150.4
    11     9  2009    72    3     349.7    296.3    0.64    266.7     299.0     229.2     215.3     173.3     173.3     150.9
    12     9  2009    73    3     337.0    283.4    0.64    255.0     301.1     230.1     215.2     173.4     173.4     151.3
    13     9  2009    74    3     324.6    271.1    0.65    243.6     303.2     230.9     217.5     174.9     174.9     151.8
    14     9  2009    75    3     328.3    274.9    0.65    248.2     305.3     231.8     216.4     174.3     174.3     152.3
    15     9  2009    76    3     319.0    265.7    0.66    239.9     307.4     232.6     220.2     176.7     176.7     152.7
    16     9  2009    77    3     329.3    276.0    0.66    251.1     309.5     233.4     220.7     177.1     177.1     153.2
    17     9  2009    78    3     323.0    269.8    0.66    245.8     311.5     234.2     218.7     176.0     176.0     153.6
    18     9  2009    79    3     328.5    275.3    0.67    252.1     313.6     235.1     220.7     177.3     177.3     154.1
    19     9  2009    80    4     322.0    268.8    0.67    246.4     315.6     235.9     220.2     177.1     177.1     154.5
    20     9  2009    81    4     314.3    261.1    0.68    239.5     317.7     236.7     223.1     179.0     179.0     155.0
    21     9  2009    82    4     308.0    254.8    0.68    234.1     319.7     237.5     223.0     179.0     179.0     155.5
    22     9  2009    83    4     309.1    255.9    0.69    236.1     321.7     238.3     221.8     178.4     178.4     155.9
    23     9  2009    84    4     303.3    250.2    0.69    231.1     323.8     239.2     225.4     180.7     180.7     156.4
    24     9  2009    85    4     298.7    245.5    0.70    227.3     325.8     240.0     226.1     181.2     181.2     156.8
    25     9  2009    86    4     313.9    260.8    0.70    243.3     327.8     240.8     224.7     180.4     180.4     157.3
    26     9  2009    87    4     308.9    255.7    0.71    239.1     329.8     241.6     227.9     182.5     182.5     157.7
    27     9  2009    88    4     303.1    250.0    0.71    234.2     331.8     242.4     231.2     184.7     184.7     158.1
    28     9  2009    89    4     298.9    245.8    0.72    230.8     333.8     243.2     232.0     185.2     185.2     158.6
    29     9  2009    90    4     296.1    243.0    0.72    228.8     335.8     244.0     230.8     184.6     184.6     159.0
    30     9  2009    91    4     293.3    240.2    0.72    226.8     337.8     244.8     234.8     187.1     187.1     159.5
     1    10  2009    92    4     291.2    238.1    0.73    225.5     339.8     245.6     232.0     185.5     185.5     159.9
     2    10  2009    93    4     289.5    236.4    0.73    224.6     341.8     246.4     231.7     185.4     185.4     160.4
     3    10  2009    94    4     287.7    234.6    0.74    223.6     343.7     247.2     234.1     187.0     187.0     160.8
     4    10  2009    95    4     285.6    232.4    0.74    222.2     345.7     248.0     239.7     190.5     190.5     161.2
     5    10  2009    96    4     283.8    230.7    0.75    221.3     347.7     248.8     237.5     189.3     189.3     161.7
     6    10  2009    97    4     282.4    229.3    0.75    220.6     349.6     249.5     236.0     188.4     188.4     162.1
     7    10  2009    98    4     280.4    227.3    0.76    219.4     351.6     250.3     244.0     193.4     193.4     162.5
     8    10  2009    99    4     279.1    226.0    0.76    218.9     353.5     251.1     237.1     189.3     189.3     163.0
     9    10  2009   100    4     277.7    224.6    0.76    218.3     355.5     251.9     239.5     190.8     190.8     163.4
    10    10  2009   101    4     276.4    223.3    0.77    217.8     357.4     252.7     240.2     191.4     191.4     163.8
    11    10  2009   102    4     275.1    222.0    0.77    217.2     359.3     253.4     241.6     192.3     192.3     164.3
    12    10  2009   103    4     273.6    220.5    0.78    216.5     361.3     254.2     244.0     193.9     193.9     164.7
    13    10  2009   104    4     272.4    219.3    0.78    216.1     363.2     255.0     241.7     192.6     192.6     165.1
    14    10  2009   105    4     271.1    218.0    0.79    215.6     365.1     255.8     244.5     194.3     194.3     165.5
    15    10  2009   106    4     269.8    216.7    0.79    215.0     367.0     256.5     245.9     195.3     195.3     166.0
    16    10  2009   107    4     268.3    215.2    0.79    214.3     368.9     257.3     248.7     197.1     197.1     166.4
    17    10  2009   108    4     269.2    216.1    0.80    216.0     370.9     258.1     242.5     193.4     193.4     166.8
    18    10  2009   109    4     269.9    216.8    0.80    216.6     370.9     258.1     243.6     194.1     194.1     166.8
    19    10  2009   110    4     267.2    214.1    0.80    214.0     370.9     258.1     246.7     196.0     196.0     166.8
    20    10  2009   111    4     265.8    212.7    0.80    212.5     370.9     258.1     250.1     198.1     198.1     166.8
    21    10  2009   112    4     264.2    211.1    0.80    210.9     370.9     258.1     252.5     199.5     199.5     166.8
    22    10  2009   113    4     262.9    209.8    0.80    209.7     370.9     258.1     248.7     197.2     197.2     166.8
    23    10  2009   114    4     261.5    208.4    0.80    208.2     370.9     258.1     251.8     199.1     199.1     166.8
    24    10  2009   115    4     260.0    206.9    0.80    206.8     370.9     258.1     252.2     199.3     199.3     166.8
    25    10  2009   116    4     259.2    206.1    0.80    206.0     370.9     258.1     243.2     193.8     193.8     166.8
    26    10  2009   117    4     258.2    205.1    0.80    204.9     370.9     258.1     248.7     197.2     197.2     166.8
    27    10  2009   118    4     257.3    204.2    0.80    204.0     370.9     258.1     245.3     195.1     195.1     166.8
    28    10  2009   119    4     256.3    203.2    0.80    203.1     370.9     258.1     247.7     196.6     196.6     166.8
    29    10  2009   120    4     255.5    202.4    0.80    202.2     370.9     258.1     247.3     196.4     196.4     166.8
    30    10  2009   121    4     254.7    201.6    0.80    201.4     370.9     258.1     248.4     197.0     197.0     166.8
    31    10  2009   122    4     253.9    200.8    0.80    200.6     370.9     258.1     249.8     197.9     197.9     166.8
     1    11  2009   123    4     253.1    200.0    0.80    199.9     370.9     258.1     250.8     198.5     198.5     166.8
     2    11  2009   124    4     252.6    199.5    0.80    199.3     370.9     258.1     246.7     196.0     196.0     166.8
     3    11  2009   125    4     252.3    199.2    0.80    199.0     370.9     258.1     241.2     192.6     192.6     166.8
     4    11  2009   126    4     251.9    198.8    0.80    198.7     370.9     258.1     247.0     196.2     196.2     166.8
     5    11  2009   127    4     251.6    198.5    0.80    198.3     370.9     258.1     248.7     197.2     197.2     166.8
     6    11  2009   128    4     251.3    198.2    0.80    198.0     370.9     258.1     248.7     197.2     197.2     166.8
     7    11  2009   129    4     251.0    197.9    0.80    197.8     370.9     258.1     249.8     197.9     197.9     166.8
     8    11  2009    -9    0     250.8    197.7    0.80    197.5     370.9     258.1     250.4     198.3     198.3     166.8
     9    11  2009    -9    0     250.5    197.4    0.80    197.3     370.9     258.1     250.4     197.6     198.3     166.8
    10    11  2009    -9    0     250.3    197.2    0.80    197.1     370.9     258.1     250.4     197.4     198.3     166.8

Legend

DAP          : Days after planting
Stage        : 0: before/after planting
Stage        : 1: emergence or transplant recovery
Stage        : 2: vegetative stage
Stage        : 3: flowering
Stage        : 4: yield formation and ripening
WCTot        : Water content in total soil profile (layer: 0.00 - 1.10 m)
Wr(Zx)       : Water content in maximum effective root zone (Zx = 0.80 m)
Z            : Effective rooting depth
Wr           : Water content in effective root zone
Wr(Sat)      : Water content in effective root zone if saturated
Wr(FC)       : Water content in effective root zone at field capacity
Wr(exp)      : Water content in effective root zone at upper threshold for leaf expansion
Wr(sto)      : Water content in effective root zone at upper threshold for stomatal closure
Wr(sen)      : Water content in effective root zone at upper threshold for early canopy senescence
Wr(PWP)      : Water content in effective root zone at permanent wilting point
