AquaCrop 6.1 (May 2018) - Output created on (date) : 29/07/2022   at (time) : 17:56:33
Soil salinity in soil profile and root zone

** Run number:  1   -- Salt balance for soil profile (Total layer: 0.00 - 1.20 m) and soil salinity in root zone (Z)
   Day Month  Year   DAP Stage   SaltIn    SaltOut   SaltUp    SaltTot    SaltZ     Z       ECe    ECsw   StSalt  Zgwt    ECgw
                                 ton/ha    ton/ha    ton/ha    ton/ha    ton/ha     m      dS/m    dS/m      %     m      dS/m
     2     7  2009     1    1     0.000     0.000     0.000     0.000     0.000    0.30    0.00    0.00      0   -9.90   -9.00
     3     7  2009     2    1     0.000     0.000     0.000     0.000     0.000    0.30    0.00    0.00      0   -9.90   -9.00
     4     7  2009     3    1     0.000     0.000     0.000     0.000     0.000    0.30    0.00    0.00      0   -9.90   -9.00
     5     7  2009     4    1     0.000     0.000     0.000     0.000     0.000    0.30    0.00    0.00      0   -9.90   -9.00
     6     7  2009     5    1     0.000     0.000     0.000     0.000     0.000    0.30    0.00    0.00      0   -9.90   -9.00
     7     7  2009     6    1     0.000     0.000     0.000     0.000     0.000    0.30    0.00    0.00      0   -9.90   -9.00
     8     7  2009     7    2     0.000     0.000     0.000     0.000     0.000    0.30    0.00    0.00      0   -9.90   -9.00
     9     7  2009     8    2     0.000     0.000     0.000     0.000     0.000    0.30    0.00    0.00      0   -9.90   -9.00
    10     7  2009     9    2     0.000     0.000     0.000     0.000     0.000    0.30    0.00    0.00      0   -9.90   -9.00
    11     7  2009    10    2     0.000     0.000     0.000     0.000     0.000    0.30    0.00    0.00      0   -9.90   -9.00
    12     7  2009    11    2     0.000     0.000     0.000     0.000     0.000    0.30    0.00    0.00      0   -9.90   -9.00
    13     7  2009    12    2     0.000     0.000     0.000     0.000     0.000    0.30    0.00    0.00      0   -9.90   -9.00
    14     7  2009    13    2     0.000     0.000     0.000     0.000     0.000    0.31    0.00    0.00      0   -9.90   -9.00
    15     7  2009    14    2     0.000     0.000     0.000     0.000     0.000    0.31    0.00    0.00      0   -9.90   -9.00
    16     7  2009    15    2     0.000     0.000     0.000     0.000     0.000    0.32    0.00    0.00      0   -9.90   -9.00
    17     7  2009    16    2     0.000     0.000     0.000     0.000     0.000    0.33    0.00    0.00      0   -9.90   -9.00
    18     7  2009    17    2     0.000     0.000     0.000     0.000     0.000    0.34    0.00    0.00      0   -9.90   -9.00
    19     7  2009    18    2     0.000     0.000     0.000     0.000     0.000    0.34    0.00    0.00      0   -9.90   -9.00
    20     7  2009    19    2     0.000     0.000     0.000     0.000     0.000    0.35    0.00    0.00      0   -9.90   -9.00
    21     7  2009    20    2     0.000     0.000     0.000     0.000     0.000    0.36    0.00    0.00      0   -9.90   -9.00
    22     7  2009    21    2     0.000     0.000     0.000     0.000     0.000    0.36    0.00    0.00      0   -9.90   -9.00
    23     7  2009    22    2     0.000     0.000     0.000     0.000     0.000    0.37    0.00    0.00      0   -9.90   -9.00
    24     7  2009    23    2     0.000     0.000     0.000     0.000     0.000    0.37    0.00    0.00      0   -9.90   -9.00
    25     7  2009    24    2     0.000     0.000     0.000     0.000     0.000    0.38    0.00    0.00      0   -9.90   -9.00
    26     7  2009    25    2     0.000     0.000     0.000     0.000     0.000    0.39    0.00    0.00      0   -9.90   -9.00
    27     7  2009    26    2     0.000     0.000     0.000     0.000     0.000    0.39    0.00    0.00      0   -9.90   -9.00
    28     7  2009    27    2     0.000     0.000     0.000     0.000     0.000    0.40    0.00    0.00      0   -9.90   -9.00
    29     7  2009    28    2     0.000     0.000     0.000     0.000     0.000    0.41    0.00    0.00      0   -9.90   -9.00
    30     7  2009    29    2     0.000     0.000     0.000     0.000     0.000    0.41    0.00    0.00      0   -9.90   -9.00
    31     7  2009    30    2     0.000     0.000     0.000     0.000     0.000    0.42    0.00    0.00      0   -9.90   -9.00
     1     8  2009    31    2     0.000     0.000     0.000     0.000     0.000    0.42    0.00    0.00      0   -9.90   -9.00
     2     8  2009    32    2     0.000     0.000     0.000     0.000     0.000    0.43    0.00    0.00      0   -9.90   -9.00
     3     8  2009    33    2     0.000     0.000     0.000     0.000     0.000    0.44    0.00    0.00      0   -9.90   -9.00
     4     8  2009    34    2     0.000     0.000     0.000     0.000     0.000    0.44    0.00    0.00      0   -9.90   -9.00
     5     8  2009    35    2     0.000     0.000     0.000     0.000     0.000    0.45    0.00    0.00      0   -9.90   -9.00
     6     8  2009    36    2     0.000     0.000     0.000     0.000     0.000    0.45    0.00    0.00      0   -9.90   -9.00
     7     8  2009    37    2     0.000     0.000     0.000     0.000     0.000    0.46    0.00    0.00      0   -9.90   -9.00
     8     8  2009    38    2     0.000     0.000     0.000     0.000     0.000    0.46    0.00    0.00      0   -9.90   -9.00
     9     8  2009    39    2     0.000     0.000     0.000     0.000     0.000    0.47    0.00    0.00      0   -9.90   -9.00
    10     8  2009    40    2     0.000     0.000     0.000     0.000     0.000    0.47    0.00    0.00      0   -9.90   -9.00
    11     8  2009    41    2     0.000     0.000     0.000     0.000     0.000    0.48    0.00    0.00      0   -9.90   -9.00
    12     8  2009    42    2     0.000     0.000     0.000     0.000     0.000    0.49    0.00    0.00      0   -9.90   -9.00
    13     8  2009    43    2     0.000     0.000     0.000     0.000     0.000    0.49    0.00    0.00      0   -9.90   -9.00
    14     8  2009    44    2     0.000     0.000     0.000     0.000     0.000    0.50    0.00    0.00      0   -9.90   -9.00
    15     8  2009    45    2     0.000     0.000     0.000     0.000     0.000    0.50    0.00    0.00      0   -9.90   -9.00
    16     8  2009    46    2     0.000     0.000     0.000     0.000     0.000    0.51    0.00    0.00      0   -9.90   -9.00
    17     8  2009    47    2     0.000     0.000     0.000     0.000     0.000    0.51    0.00    0.00      0   -9.90   -9.00
    18     8  2009    48    2     0.000     0.000     0.000     0.000     0.000    0.52    0.00    0.00      0   -9.90   -9.00
    19     8  2009    49    2     0.000     0.000     0.000     0.000     0.000    0.52    0.00    0.00      0   -9.90   -9.00
    20     8  2009    50    2     0.000     0.000     0.000     0.000     0.000    0.53    0.00    0.00      0   -9.90   -9.00
    21     8  2009    51    2     0.000     0.000     0.000     0.000     0.000    0.53    0.00    0.00      0   -9.90   -9.00
    22     8  2009    52    2     0.000     0.000     0.000     0.000     0.000    0.54    0.00    0.00      0   -9.90   -9.00
    23     8  2009    53    2     0.000     0.000     0.000     0.000     0.000    0.54    0.00    0.00      0   -9.90   -9.00
    24     8  2009    54    2     0.000     0.000     0.000     0.000     0.000    0.55    0.00    0.00      0   -9.90   -9.00
    25     8  2009    55    2     0.000     0.000     0.000     0.000     0.000    0.55    0.00    0.00      0   -9.90   -9.00
    26     8  2009    56    2     0.000     0.000     0.000     0.000     0.000    0.56    0.00    0.00      0   -9.90   -9.00
    27     8  2009    57    2     0.000     0.000     0.000     0.000     0.000    0.56    0.00    0.00      0   -9.90   -9.00
    28     8  2009    58    2     0.000     0.000     0.000     0.000     0.000    0.57    0.00    0.00      0   -9.90   -9.00
    29     8  2009    59    2     0.000     0.000     0.000     0.000     0.000    0.57    0.00    0.00      0   -9.90   -9.00
    30     8  2009    60    2     0.000     0.000     0.000     0.000     0.000    0.58    0.00    0.00      0   -9.90   -9.00
    31     8  2009    61    2     0.000     0.000     0.000     0.000     0.000    0.58    0.00    0.00      0   -9.90   -9.00
     1     9  2009    62    2     0.000     0.000     0.000     0.000     0.000    0.59    0.00    0.00      0   -9.90   -9.00
     2     9  2009    63    2     0.000     0.000     0.000     0.000     0.000    0.59    0.00    0.00      0   -9.90   -9.00
     3     9  2009    64    2     0.000     0.000     0.000     0.000     0.000    0.60    0.00    0.00      0   -9.90   -9.00
     4     9  2009    65    2     0.000     0.000     0.000     0.000     0.000    0.60    0.00    0.00      0   -9.90   -9.00
     5     9  2009    66    2     0.000     0.000     0.000     0.000     0.000    0.61    0.00    0.00      0   -9.90   -9.00
     6     9  2009    67    3     0.000     0.000     0.000     0.000     0.000    0.61    0.00    0.00      0   -9.90   -9.00
     7     9  2009    68    3     0.000     0.000     0.000     0.000     0.000    0.62    0.00    0.00      0   -9.90   -9.00
     8     9  2009    69    3     0.000     0.000     0.000     0.000     0.000    0.62    0.00    0.00      0   -9.90   -9.00
     9     9  2009    70    3     0.000     0.000     0.000     0.000     0.000    0.63    0.00    0.00      0   -9.90   -9.00
    10     9  2009    71    3     0.000     0.000     0.000     0.000     0.000    0.63    0.00    0.00      0   -9.90   -9.00
    11     9  2009    72    3     0.000     0.000     0.000     0.000     0.000    0.64    0.00    0.00      0   -9.90   -9.00
    12     9  2009    73    3     0.000     0.000     0.000     0.000     0.000    0.64    0.00    0.00      0   -9.90   -9.00
    13     9  2009    74    3     0.000     0.000     0.000     0.000     0.000    0.65    0.00    0.00      0   -9.90   -9.00
    14     9  2009    75    3     0.000     0.000     0.000     0.000     0.000    0.65    0.00    0.00      0   -9.90   -9.00
    15     9  2009    76    3     0.000     0.000     0.000     0.000     0.000    0.66    0.00    0.00      0   -9.90   -9.00
    16     9  2009    77    3     0.000     0.000     0.000     0.000     0.000    0.66    0.00    0.00      0   -9.90   -9.00
    17     9  2009    78    3     0.000     0.000     0.000     0.000     0.000    0.67    0.00    0.00      0   -9.90   -9.00
    18     9  2009    79    3     0.000     0.000     0.000     0.000     0.000    0.67    0.00    0.00      0   -9.90   -9.00
    19     9  2009    80    4     0.000     0.000     0.000     0.000     0.000    0.67    0.00    0.00      0   -9.90   -9.00
    20     9  2009    81    4     0.000     0.000     0.000     0.000     0.000    0.68    0.00    0.00      0   -9.90   -9.00
    21     9  2009    82    4     0.000     0.000     0.000     0.000     0.000    0.68    0.00    0.00      0   -9.90   -9.00
    22     9  2009    83    4     0.000     0.000     0.000     0.000     0.000    0.69    0.00    0.00      0   -9.90   -9.00
    23     9  2009    84    4     0.000     0.000     0.000     0.000     0.000    0.69    0.00    0.00      0   -9.90   -9.00
    24     9  2009    85    4     0.000     0.000     0.000     0.000     0.000    0.70    0.00    0.00      0   -9.90   -9.00
    25     9  2009    86    4     0.000     0.000     0.000     0.000     0.000    0.70    0.00    0.00      0   -9.90   -9.00
    26     9  2009    87    4     0.000     0.000     0.000     0.000     0.000    0.71    0.00    0.00      0   -9.90   -9.00
    27     9  2009    88    4     0.000     0.000     0.000     0.000     0.000    0.71    0.00    0.00      0   -9.90   -9.00
    28     9  2009    89    4     0.000     0.000     0.000     0.000     0.000    0.72    0.00    0.00      0   -9.90   -9.00
    29     9  2009    90    4     0.000     0.000     0.000     0.000     0.000    0.72    0.00    0.00      0   -9.90   -9.00
    30     9  2009    91    4     0.000     0.000     0.000     0.000     0.000    0.73    0.00    0.00      0   -9.90   -9.00
     1    10  2009    92    4     0.000     0.000     0.000     0.000     0.000    0.73    0.00    0.00      0   -9.90   -9.00
     2    10  2009    93    4     0.000     0.000     0.000     0.000     0.000    0.73    0.00    0.00      0   -9.90   -9.00
     3    10  2009    94    4     0.000     0.000     0.000     0.000     0.000    0.74    0.00    0.00      0   -9.90   -9.00
     4    10  2009    95    4     0.000     0.000     0.000     0.000     0.000    0.74    0.00    0.00      0   -9.90   -9.00
     5    10  2009    96    4     0.000     0.000     0.000     0.000     0.000    0.75    0.00    0.00      0   -9.90   -9.00
     6    10  2009    97    4     0.000     0.000     0.000     0.000     0.000    0.75    0.00    0.00      0   -9.90   -9.00
     7    10  2009    98    4     0.000     0.000     0.000     0.000     0.000    0.76    0.00    0.00      0   -9.90   -9.00
     8    10  2009    99    4     0.000     0.000     0.000     0.000     0.000    0.76    0.00    0.00      0   -9.90   -9.00
     9    10  2009   100    4     0.000     0.000     0.000     0.000     0.000    0.77    0.00    0.00      0   -9.90   -9.00
    10    10  2009   101    4     0.000     0.000     0.000     0.000     0.000    0.77    0.00    0.00      0   -9.90   -9.00
    11    10  2009   102    4     0.000     0.000     0.000     0.000     0.000    0.77    0.00    0.00      0   -9.90   -9.00
    12    10  2009   103    4     0.000     0.000     0.000     0.000     0.000    0.78    0.00    0.00      0   -9.90   -9.00
    13    10  2009   104    4     0.000     0.000     0.000     0.000     0.000    0.78    0.00    0.00      0   -9.90   -9.00
    14    10  2009   105    4     0.000     0.000     0.000     0.000     0.000    0.79    0.00    0.00      0   -9.90   -9.00
    15    10  2009   106    4     0.000     0.000     0.000     0.000     0.000    0.79    0.00    0.00      0   -9.90   -9.00
    16    10  2009   107    4     0.000     0.000     0.000     0.000     0.000    0.80    0.00    0.00      0   -9.90   -9.00
    17    10  2009   108    4     0.000     0.000     0.000     0.000     0.000    0.80    0.00    0.00      0   -9.90   -9.00
    18    10  2009   109    4     0.000     0.000     0.000     0.000     0.000    0.80    0.00    0.00      0   -9.90   -9.00
    19    10  2009   110    4     0.000     0.000     0.000     0.000     0.000    0.80    0.00    0.00      0   -9.90   -9.00
    20    10  2009   111    4     0.000     0.000     0.000     0.000     0.000    0.80    0.00    0.00      0   -9.90   -9.00
    21    10  2009   112    4     0.000     0.000     0.000     0.000     0.000    0.80    0.00    0.00      0   -9.90   -9.00
    22    10  2009   113    4     0.000     0.000     0.000     0.000     0.000    0.80    0.00    0.00      0   -9.90   -9.00
    23    10  2009   114    4     0.000     0.000     0.000     0.000     0.000    0.80    0.00    0.00      0   -9.90   -9.00
    24    10  2009   115    4     0.000     0.000     0.000     0.000     0.000    0.80    0.00    0.00      0   -9.90   -9.00
    25    10  2009   116    4     0.000     0.000     0.000     0.000     0.000    0.80    0.00    0.00      0   -9.90   -9.00
    26    10  2009   117    4     0.000     0.000     0.000     0.000     0.000    0.80    0.00    0.00      0   -9.90   -9.00
    27    10  2009   118    4     0.000     0.000     0.000     0.000     0.000    0.80    0.00    0.00      0   -9.90   -9.00
    28    10  2009   119    4     0.000     0.000     0.000     0.000     0.000    0.80    0.00    0.00      0   -9.90   -9.00
    29    10  2009   120    4     0.000     0.000     0.000     0.000     0.000    0.80    0.00    0.00      0   -9.90   -9.00
    30    10  2009   121    4     0.000     0.000     0.000     0.000     0.000    0.80    0.00    0.00      0   -9.90   -9.00
    31    10  2009   122    4     0.000     0.000     0.000     0.000     0.000    0.80    0.00    0.00      0   -9.90   -9.00
     1    11  2009   123    4     0.000     0.000     0.000     0.000     0.000    0.80    0.00    0.00      0   -9.90   -9.00
     2    11  2009   124    4     0.000     0.000     0.000     0.000     0.000    0.80    0.00    0.00      0   -9.90   -9.00
     3    11  2009   125    4     0.000     0.000     0.000     0.000     0.000    0.80    0.00    0.00      0   -9.90   -9.00
     4    11  2009   126    4     0.000     0.000     0.000     0.000     0.000    0.80    0.00    0.00      0   -9.90   -9.00
     5    11  2009   127    4     0.000     0.000     0.000     0.000     0.000    0.80    0.00    0.00      0   -9.90   -9.00
     6    11  2009   128    4     0.000     0.000     0.000     0.000     0.000    0.80    0.00    0.00      0   -9.90   -9.00
     7    11  2009   129    4     0.000     0.000     0.000     0.000     0.000    0.80    0.00    0.00      0   -9.90   -9.00
     8    11  2009    -9    0     0.000     0.000     0.000     0.000     0.000    0.80    0.00    0.00      0   -9.90   -9.00
     9    11  2009    -9    0     0.000     0.000     0.000     0.000     0.000    0.80    0.00    0.00      0   -9.90   -9.00
    10    11  2009    -9    0     0.000     0.000     0.000     0.000     0.000    0.80    0.00    0.00      0   -9.90   -9.00

Legend

DAP          : Days after planting
Stage        : 0: before/after planting
Stage        : 1: emergence or transplant recovery
Stage        : 2: vegetative stage
Stage        : 3: flowering
Stage        : 4: yield formation and ripening
SaltIn       : Salt infiltrated in the soil profile
SaltOut      : Salt drained out of the soil profile
SaltUp       : Salt moved upward from the groundwater table
SaltTot      : Salt content in the total soil profile (layer: 0.00 - 1.20 m)
SaltZ        : Salt content in the effective root zone
Z            : Effective rooting depth
ECe          : Electrical conductivity of the saturated soil-paste extract from the root zone
ECsw         : Electrical conductivity of the soil water in the root zone
StSalt       : Salinity stress
Zgwt         : Depth of the groundwater table (-9.90 if absent)
ECgw         : Electrical conductivity of the groundwater
