AquaCrop 6.1 (May 2018) - Output created on (date) : 29/07/2022   at (time) : 17:56:33
Crop development and production

** Run number:  1
   Day Month  Year   DAP Stage    GD       Z     StExp  StSto  StSen StSalt StWeed   CC      CCw     StTr  Kc(Tr)     Trx      Tr       TrW  Tr/Trx   WP    Biomass     HI  YieldPart  Brelative   WPet
                                °C-day     m       %      %      %      %      %      %       %       %       -        mm       mm       mm    %     g/m2    ton/ha      %    ton/ha       %      kg/m3
     2     7  2009     1    1    18.0    0.30     -9     -9     -9      0     -9     0.0     0.0      0    -9.00      0.0      0.0      0.0   100    34.2     0.000    -9.9    0.000       -9      0.00
     3     7  2009     2    1    19.1    0.30     -9     -9     -9      0     -9     0.0     0.0      0    -9.00      0.0      0.0      0.0   100    34.2     0.000    -9.9    0.000       -9      0.00
     4     7  2009     3    1    20.2    0.30     -9     -9     -9      0     -9     0.0     0.0      0    -9.00      0.0      0.0      0.0   100    34.2     0.000    -9.9    0.000       -9      0.00
     5     7  2009     4    1    19.1    0.30     -9     -9     -9      0     -9     0.0     0.0      0    -9.00      0.0      0.0      0.0   100    34.2     0.000    -9.9    0.000       -9      0.00
     6     7  2009     5    1    20.0    0.30     -9     -9     -9      0     -9     0.0     0.0      0    -9.00      0.0      0.0      0.0   100    34.2     0.000    -9.9    0.000       -9      0.00
     7     7  2009     6    1    19.6    0.30     -9     -9     -9      0     -9     0.0     0.0      0    -9.00      0.0      0.0      0.0   100    34.2     0.000    -9.9    0.000       -9      0.00
     8     7  2009     7    2    20.1    0.30     -9      0      0      0     45     0.2     0.1      0     0.00      0.0      0.0      0.0   100    34.2     0.001    -9.9    0.000       74      0.00
     9     7  2009     8    2    20.5    0.30     -9      0      0      0     45     0.2     0.1      0     0.00      0.0      0.0      0.0   100    34.2     0.002    -9.9    0.000       69      0.00
    10     7  2009     9    2    21.0    0.30     -9      0      0      0     45     0.3     0.1      0     0.00      0.0      0.0      0.0   100    34.2     0.003    -9.9    0.000       66      0.00
    11     7  2009    10    2    19.0    0.30      0      0      0      0     45     0.3     0.2      0     0.01      0.0      0.0      0.0   100    34.2     0.005    -9.9    0.000       64      0.00
    12     7  2009    11    2    20.5    0.30      0      0      0      0     45     0.3     0.2      0     0.01      0.0      0.0      0.0   100    34.2     0.006    -9.9    0.000       62      0.00
    13     7  2009    12    2    19.5    0.30      0      0      0      0     45     0.4     0.2      0     0.01      0.0      0.0      0.0   100    34.2     0.008    -9.9    0.000       59      0.00
    14     7  2009    13    2    19.8    0.31      0      0      0      0     45     0.4     0.2      0     0.01      0.0      0.0      0.0   100    34.2     0.010    -9.9    0.000       57      0.00
    15     7  2009    14    2    18.3    0.31      0      0      0      0     45     0.5     0.2      0     0.01      0.0      0.0      0.0   100    34.2     0.012    -9.9    0.000       55      0.00
    16     7  2009    15    2    18.6    0.32      0      0      0      0     45     0.5     0.3      0     0.01      0.0      0.0      0.0   100    34.2     0.014    -9.9    0.000       53      0.00
    17     7  2009    16    2    19.5    0.33      0      0      0      0     45     0.6     0.3      0     0.01      0.0      0.0      0.0   100    34.2     0.016    -9.9    0.000       50      0.00
    18     7  2009    17    2    19.3    0.34      0      0      0      0     45     0.6     0.3      0     0.01      0.0      0.0      0.0   100    34.2     0.019    -9.9    0.000       48      0.00
    19     7  2009    18    2    20.6    0.34      0      0      0      0     45     0.7     0.4      0     0.01      0.0      0.0      0.0   100    34.2     0.022    -9.9    0.000       46      0.00
    20     7  2009    19    2    20.6    0.35      0      0      0      0     45     0.8     0.4      0     0.01      0.0      0.0      0.0   100    34.2     0.026    -9.9    0.000       44      0.00
    21     7  2009    20    2    16.9    0.36      0      0      0      0     45     0.8     0.5      0     0.02      0.1      0.1      0.0   100    34.2     0.030    -9.9    0.000       42      0.00
    22     7  2009    21    2    19.5    0.36      0      0      0      0     45     0.9     0.5      0     0.02      0.1      0.1      0.0   100    34.2     0.034    -9.9    0.000       40      0.00
    23     7  2009    22    2    20.1    0.37      0      0      0      0     45     1.0     0.6      0     0.02      0.1      0.1      0.1   100    34.2     0.038    -9.9    0.000       39      0.00
    24     7  2009    23    2    20.8    0.37      0      0      0      0     45     1.2     0.6      0     0.02      0.1      0.1      0.1   100    34.2     0.044    -9.9    0.000       37      0.00
    25     7  2009    24    2    20.7    0.38      0      0      0      0     45     1.3     0.7      0     0.02      0.1      0.1      0.1   100    34.2     0.049    -9.9    0.000       35      0.00
    26     7  2009    25    2    20.5    0.39      0      0      0      0     45     1.4     0.8      0     0.03      0.1      0.1      0.1   100    34.2     0.056    -9.9    0.000       33      0.00
    27     7  2009    26    2    19.3    0.39      0      0      0      0     45     1.6     0.9      0     0.03      0.1      0.1      0.1   100    34.2     0.063    -9.9    0.000       32      0.00
    28     7  2009    27    2    20.0    0.40      0      0      0      0     45     1.8     1.0      0     0.03      0.1      0.1      0.1   100    34.2     0.071    -9.9    0.000       30      0.00
    29     7  2009    28    2    18.2    0.41      0      0      0      0     45     1.9     1.1      0     0.03      0.1      0.1      0.1   100    34.2     0.079    -9.9    0.000       29      0.00
    30     7  2009    29    2    18.3    0.41      0      0      0      0     45     2.2     1.2      0     0.04      0.2      0.2      0.1   100    34.2     0.089    -9.9    0.000       27      0.00
    31     7  2009    30    2    19.5    0.42      0      0      0      0     45     2.4     1.3      0     0.04      0.2      0.2      0.1   100    34.2     0.100    -9.9    0.000       26      0.00
     1     8  2009    31    2    20.1    0.42      0      0      0      0     45     2.7     1.5      0     0.05      0.2      0.2      0.1   100    34.2     0.112    -9.9    0.000       25      0.00
     2     8  2009    32    2    18.6    0.43      0      0      0      0     45     3.0     1.6      0     0.05      0.2      0.2      0.2   100    34.2     0.125    -9.9    0.000       24      0.00
     3     8  2009    33    2    17.4    0.44      0      0      0      0     45     3.3     1.8      0     0.06      0.2      0.2      0.2   100    34.2     0.140    -9.9    0.000       23      0.00
     4     8  2009    34    2    19.3    0.44      0      0      0      0     45     3.7     2.0      0     0.06      0.3      0.3      0.2   100    34.2     0.156    -9.9    0.000       22      0.00
     5     8  2009    35    2    19.1    0.45      0      0      0      0     45     4.1     2.3      0     0.07      0.3      0.3      0.2   100    34.2     0.174    -9.9    0.000       21      0.00
     6     8  2009    36    2    19.8    0.45      0      0      0      0     45     4.6     2.5      0     0.08      0.3      0.3      0.2   100    34.2     0.194    -9.9    0.000       20      0.00
     7     8  2009    37    2    18.9    0.46      0      0      0      0     45     5.1     2.8      0     0.09      0.3      0.3      0.2   100    34.2     0.216    -9.9    0.000       19      0.00
     8     8  2009    38    2    19.0    0.46      0      0      0      0     45     5.8     3.2      0     0.10      0.4      0.4      0.3   100    34.2     0.241    -9.9    0.000       19      0.00
     9     8  2009    39    2    19.0    0.47      0      0      0      0     45     6.4     3.5      0     0.11      0.4      0.4      0.3   100    34.2     0.269    -9.9    0.000       19      0.00
    10     8  2009    40    2    20.0    0.47      0      0      0      0     45     7.2     4.0      0     0.12      0.4      0.4      0.3   100    34.1     0.300    -9.9    0.000       19      0.00
    11     8  2009    41    2    18.5    0.48      0      0      0      0     45     8.1     4.4      0     0.14      0.6      0.6      0.4   100    34.1     0.334    -9.9    0.000       19      0.00
    12     8  2009    42    2    19.1    0.49      0      0      0      0     45     9.0     5.0      0     0.15      0.6      0.6      0.4   100    34.1     0.372    -9.9    0.000       19      0.00
    13     8  2009    43    2    17.8    0.49      0      0      0      0     45    10.1     5.6      0     0.17      0.7      0.7      0.5   100    34.1     0.414    -9.9    0.000       20      0.00
    14     8  2009    44    2    20.1    0.50      0      0      0      0     45    11.0     6.1      0     0.19      0.6      0.6      0.5   100    34.1     0.460    -9.9    0.000       20      0.00
    15     8  2009    45    2    17.8    0.50      0      0      0      0     45    11.8     6.5      0     0.20      0.8      0.8      0.6   100    34.1     0.509    -9.9    0.000       21      0.00
    16     8  2009    46    2    16.9    0.51      0      0      0      0     45    12.6     6.9      0     0.21      0.9      0.9      0.7   100    34.0     0.560    -9.9    0.000       21      0.00
    17     8  2009    47    2    19.0    0.51      0      0      0      0     45    13.2     7.3      0     0.22      0.9      0.9      0.6   100    34.0     0.614    -9.9    0.000       22      0.00
    18     8  2009    48    2    18.9    0.52      0      0      0      0     45    13.7     7.6      0     0.23      1.0      1.0      0.7   100    34.0     0.669    -9.9    0.000       22      0.00
    19     8  2009    49    2    17.9    0.52      0      0      0      0     45    14.2     7.8      0     0.23      0.9      0.9      0.7   100    33.9     0.726    -9.9    0.000       23      0.00
    20     8  2009    50    2    20.3    0.53      0      0      0      0     45    14.6     8.0      0     0.24      0.9      0.9      0.7   100    33.9     0.784    -9.9    0.000       23      0.00
    21     8  2009    51    2    19.8    0.53      0      0      0      0     45    14.9     8.2      0     0.25      1.0      1.0      0.7   100    33.8     0.844    -9.9    0.000       23      0.00
    22     8  2009    52    2    18.0    0.54      0      0      0      0     45    15.2     8.4      0     0.25      1.1      1.1      0.8   100    33.8     0.904    -9.9    0.000       24      0.00
    23     8  2009    53    2    18.2    0.54      0      0      0      0     45    15.4     8.5      0     0.25      1.0      1.0      0.7   100    33.7     0.965    -9.9    0.000       24      0.00
    24     8  2009    54    2    19.4    0.55      0      0      0      0     45    15.7     8.6      0     0.26      0.9      0.9      0.7   100    33.6     1.027    -9.9    0.000       25      0.00
    25     8  2009    55    2    18.8    0.55      0      0      0      0     45    15.8     8.7      0     0.26      1.0      1.0      0.7   100    33.5     1.089    -9.9    0.000       25      0.00
    26     8  2009    56    2    19.4    0.56      0      0      0      0     45    16.0     8.8      0     0.26      0.9      0.9      0.7   100    33.4     1.151    -9.9    0.000       25      0.00
    27     8  2009    57    2    20.4    0.56      0      0      0      0     45    16.1     8.9      0     0.26      1.1      1.1      0.8   100    33.3     1.214    -9.9    0.000       26      0.00
    28     8  2009    58    2    18.6    0.57      0      0      0      0     45    16.2     8.9      0     0.27      1.0      1.0      0.7   100    33.2     1.277    -9.9    0.000       26      0.00
    29     8  2009    59    2    19.8    0.57      0      0      0      0     45    16.3     9.0      0     0.27      1.0      1.0      0.7   100    33.1     1.340    -9.9    0.000       26      0.00
    30     8  2009    60    2    19.8    0.58      0      0      0      0     45    16.4     9.0      0     0.27      1.2      1.2      0.8   100    33.0     1.403    -9.9    0.000       26      0.00
    31     8  2009    61    2    17.9    0.58      0      0      0      0     45    16.4     9.0      0     0.27      1.2      1.2      0.8   100    32.9     1.466    -9.9    0.000       27      0.00
     1     9  2009    62    2    19.5    0.59      0      0      0      0     45    16.5     9.1      0     0.27      1.1      1.1      0.8   100    32.8     1.528    -9.9    0.000       27      0.00
     2     9  2009    63    2    18.5    0.59      0      0      0      0     45    16.5     9.1      0     0.27      1.2      1.2      0.9   100    32.6     1.591    -9.9    0.000       27      0.00
     3     9  2009    64    2    18.0    0.60     -9      0      0      0     45    16.0     8.8      0     0.25      1.0      1.0      0.7   100    32.4     1.650    -9.9    0.000       27      0.00
     4     9  2009    65    2    19.8    0.60      0      0      0      0     45    16.1     8.8      0     0.26      1.0      1.0      0.7   100    32.3     1.709    -9.9    0.000       27      0.00
     5     9  2009    66    2    18.4    0.61      0      0      0      0     45    16.1     8.9      0     0.26      1.0      1.0      0.7   100    32.1     1.767    -9.9    0.000       27      0.00
     6     9  2009    67    3    19.0    0.61      0      0      0      0     45    16.2     8.9      0     0.26      0.9      0.9      0.6   100    32.0     1.826    -9.9    0.000       27      0.00
     7     9  2009    68    3    19.4    0.62      0      0      0      0     45    16.2     8.9      0     0.26      1.1      1.1      0.8   100    31.8     1.884    -9.9    0.000       27      0.00
     8     9  2009    69    3    20.0    0.62      0      0      0      0     45    16.2     8.9      0     0.26      0.9      0.9      0.6   100    31.7     1.943    -9.9    0.000       27      0.00
     9     9  2009    70    3    18.9    0.63      0      0      0      0     45    16.2     8.9      0     0.26      0.8      0.8      0.6   100    31.5     2.001     1.4    0.028       28      0.01
    10     9  2009    71    3    19.3    0.63      0      0      0      0     45    16.2     8.9      0     0.26      1.1      1.1      0.8   100    31.3     2.059     1.6    0.033       28      0.01
    11     9  2009    72    3    20.0    0.64      0      0      0      0     45    16.2     8.9      0     0.26      1.0      1.0      0.7   100    31.1     2.116     1.8    0.038       28      0.01
    12     9  2009    73    3    19.8    0.64     -9      0      0      0     45    16.0     8.8      0     0.25      0.9      0.9      0.7   100    31.0     2.172     2.0    0.044       28      0.02
    13     9  2009    74    3    19.8    0.65     -9      0      0      0     45    16.0     8.8      0     0.25      1.1      1.1      0.8   100    30.8     2.227     2.3    0.050       28      0.02
    14     9  2009    75    3    20.4    0.65     -9      0      0      0     45    16.0     8.8      0     0.25      0.9      0.9      0.6   100    30.6     2.282     2.5    0.058       28      0.02
    15     9  2009    76    3    19.7    0.66     -9      0      0      0     45    16.0     8.8      0     0.25      1.2      1.2      0.8   100    30.4     2.337     2.8    0.066       28      0.02
    16     9  2009    77    3    17.3    0.66     -9      0      0      0     45    16.1     8.8      0     0.25      1.1      1.1      0.8   100    30.2     2.391     3.2    0.076       28      0.03
    17     9  2009    78    3    18.9    0.67     -9      0      0      0     45    16.1     8.8      0     0.25      0.9      0.9      0.7   100    30.0     2.445     3.5    0.086       28      0.03
    18     9  2009    79    3    19.5    0.67     -9      0      0      0     45    16.1     8.9      0     0.25      1.0      1.0      0.7   100    29.8     2.499     3.9    0.098       28      0.03
    19     9  2009    80    4    19.8    0.67     -9      0      0      0     45    16.1     8.9      0     0.25      0.9      0.9      0.7   100    29.6     2.553     4.4    0.112       28      0.04
    20     9  2009    81    4    20.4    0.68     -9      0      0      0     45    16.1     8.9      0     0.25      1.1      1.1      0.8   100    29.4     2.606     4.9    0.127       28      0.04
    21     9  2009    82    4    20.9    0.68     -9      0      0      0     45    16.1     8.9      0     0.25      1.0      1.0      0.7   100    29.2     2.659     5.4    0.144       28      0.05
    22     9  2009    83    4    19.4    0.69     -9      0      0      0     45    16.1     8.9      0     0.26      0.9      0.9      0.6   100    28.9     2.712     6.0    0.162       28      0.05
    23     9  2009    84    4    19.3    0.69     -9      0      0      0     45    16.2     8.9      0     0.26      1.1      1.1      0.8   100    28.7     2.764     6.6    0.183       28      0.06
    24     9  2009    85    4    20.0    0.70     -9      0      0      0     45    16.2     8.9      0     0.26      1.1      1.1      0.8   100    28.5     2.816     7.2    0.203       28      0.06
    25     9  2009    86    4    18.9    0.70     -9      0      0      0     45    16.2     8.9      0     0.26      0.9      0.9      0.7   100    28.2     2.868     7.8    0.225       28      0.07
    26     9  2009    87    4    19.8    0.71     -9      0      0      0     45    16.2     8.9      0     0.26      1.1      1.1      0.8   100    28.0     2.918     8.5    0.247       28      0.08
    27     9  2009    88    4    19.0    0.71     -9      0      0      0     45    16.2     8.9      0     0.26      1.3      1.3      0.9   100    27.7     2.969     9.1    0.270       28      0.08
    28     9  2009    89    4    20.5    0.72     -9      0      0      0     45    16.1     8.9      0     0.25      1.3      1.3      0.9   100    27.5     3.019     9.7    0.293       28      0.09
    29     9  2009    90    4    21.2    0.72     -9      0      0      0     45    16.1     8.8      0     0.25      1.2      1.2      0.8   100    27.2     3.068    10.3    0.317       28      0.09
    30     9  2009    91    4    18.1    0.73     -9      0      0      0     45    16.0     8.8      0     0.25      1.4      1.4      1.0   100    27.0     3.116    11.0    0.342       28      0.10
     1    10  2009    92    4    20.4    0.73     -9      0      0      0     45    15.9     8.8      0     0.25      1.1      1.1      0.8   100    26.7     3.163    11.6    0.366       28      0.11
     2    10  2009    93    4    20.5    0.73     -9      0      0      0     45    15.8     8.7      0     0.24      1.0      1.0      0.7   100    26.4     3.209    12.2    0.392       28      0.12
     3    10  2009    94    4    20.9    0.74     -9      0      0      0     45    15.7     8.7      0     0.24      1.1      1.1      0.8   100    26.2     3.254    12.8    0.417       27      0.12
     4    10  2009    95    4    18.8    0.74     -9      0      0      0     45    15.6     8.6      0     0.24      1.5      1.5      1.1   100    25.9     3.298    13.5    0.444       27      0.13
     5    10  2009    96    4    20.5    0.75     -9      0      0      0     45    15.5     8.5      0     0.24      1.2      1.2      0.9   100    25.6     3.341    14.1    0.470       27      0.14
     6    10  2009    97    4    21.0    0.75     -9      0      0      0     45    15.4     8.5      0     0.23      1.1      1.1      0.8   100    25.4     3.383    14.7    0.497       27      0.14
     7    10  2009    98    4    17.3    0.76     -9      0      0      0     45    15.3     8.4      0     0.23      1.6      1.6      1.1   100    25.1     3.424    15.3    0.525       27      0.15
     8    10  2009    99    4    19.0    0.76     -9      0      0      0     45    15.2     8.4      0     0.23      1.0      1.0      0.7   100    24.8     3.464    15.9    0.552       27      0.16
     9    10  2009   100    4    20.5    0.77     -9      0      0      0     45    15.1     8.3      0     0.22      1.1      1.1      0.8   100    24.6     3.503    16.6    0.580       27      0.17
    10    10  2009   101    4    20.5    0.77     -9      0      0      0     45    14.9     8.2      0     0.22      1.1      1.1      0.8   100    24.3     3.541    17.2    0.609       27      0.17
    11    10  2009   102    4    20.7    0.77     -9      0      0      0     45    14.8     8.1      0     0.21      1.1      1.1      0.8   100    24.0     3.578    17.8    0.637       27      0.18
    12    10  2009   103    4    20.1    0.78     -9      0      0      0     45    14.7     8.1      0     0.21      1.2      1.2      0.9   100    23.8     3.614    18.4    0.666       27      0.19
    13    10  2009   104    4    20.0    0.78     -9      0      0      0     45    14.5     8.0      0     0.21      1.0      1.0      0.7   100    23.5     3.648    19.1    0.695       27      0.20
    14    10  2009   105    4    19.7    0.79     -9      0      0      0     45    14.4     7.9      0     0.20      1.1      1.1      0.8   100    23.3     3.682    19.7    0.725       27      0.20
    15    10  2009   106    4    19.5    0.79     -9      0      0      0     45    14.2     7.8      0     0.20      1.1      1.1      0.8   100    23.0     3.715    20.3    0.754       26      0.21
    16    10  2009   107    4    19.1    0.80     -9      0      0      0     45    14.1     7.7      0     0.19      1.2      1.2      0.9   100    22.7     3.746    20.9    0.784       26      0.22
    17    10  2009   108    4    20.0    0.80     -9      0     -9      0     45    13.8     7.6      0     0.19      0.8      0.8      0.6   100    22.5     3.776    21.5    0.814       26      0.22
    18    10  2009   109    4    20.0    0.80     -9      0     -9      0     45    13.7     7.5      0     0.18      0.8      0.8      0.6   100    22.2     3.806    22.2    0.844       26      0.23
    19    10  2009   110    4    20.0    0.80     -9      0     -9      0     45    13.6     7.5      0     0.18      1.0      1.0      0.7   100    22.0     3.834    22.8    0.874       26      0.24
    20    10  2009   111    4    19.9    0.80     -9      0     -9      0     45    13.4     7.4      0     0.18      1.1      1.1      0.8   100    21.8     3.862    23.4    0.904       26      0.24
    21    10  2009   112    4    17.8    0.80     -9      0     -9      0     45    13.2     7.3      0     0.17      1.2      1.2      0.9   100    21.5     3.888    24.0    0.935       26      0.25
    22    10  2009   113    4    19.7    0.80     -9      0     -9      0     45    13.1     7.2      0     0.17      1.0      1.0      0.7   100    21.3     3.914    24.7    0.965       26      0.26
    23    10  2009   114    4    17.6    0.80     -9      0     -9      0     45    12.8     7.1      0     0.16      1.1      1.1      0.8   100    21.1     3.938    25.3    0.996       25      0.26
    24    10  2009   115    4    17.4    0.80     -9      0     -9      0     45    12.6     6.9      0     0.16      1.1      1.1      0.8   100    20.8     3.962    25.9    1.026       25      0.27
    25    10  2009   116    4    20.2    0.80     -9      0     -9      0     45    12.3     6.8      0     0.15      0.7      0.7      0.5   100    20.6     3.984    26.5    1.057       25      0.28
    26    10  2009   117    4    18.5    0.80     -9      0     -9      0     45    11.9     6.6      0     0.14      0.8      0.8      0.6   100    20.4     4.004    27.2    1.087       25      0.29
    27    10  2009   118    4    20.8    0.80     -9      0     -9      0     45    11.6     6.4      0     0.13      0.7      0.7      0.5   100    20.2     4.024    27.8    1.118       25      0.29
    28    10  2009   119    4    20.3    0.80     -9      0     -9      0     45    11.1     6.1      0     0.12      0.7      0.7      0.5   100    20.0     4.041    28.4    1.148       25      0.30
    29    10  2009   120    4    20.7    0.80     -9      0     -9      0     45    10.6     5.8      0     0.11      0.6      0.6      0.5   100    19.9     4.058    29.0    1.177       25      0.31
    30    10  2009   121    4    18.2    0.80     -9      0     -9      0     45    10.1     5.5      0     0.10      0.6      0.6      0.4   100    19.7     4.072    29.6    1.207       25      0.31
    31    10  2009   122    4    17.2    0.80     -9      6     -9      0     45     9.4     5.2      0     0.09      0.6      0.5      0.4    94    19.6     4.084    30.3    1.236       25      0.32
     1    11  2009   123    4    17.8    0.80     -9     10     -9      0     45     8.7     4.8      0     0.08      0.5      0.4      0.3    90    19.5     4.093    30.9    1.264       25      0.33
     2    11  2009   124    4    18.8    0.80     -9      5     -9      0     45     7.8     4.3      0     0.06      0.3      0.3      0.2    95    19.4     4.101    31.5    1.292       25      0.33
     3    11  2009   125    4    18.8    0.80     -9      0     -9      0     45     6.8     3.8      0     0.05      0.2      0.2      0.1   100    19.3     4.108    32.1    1.320       25      0.34
     4    11  2009   126    4    19.6    0.80     -9      9     -9      0     45     5.7     3.1      0     0.03      0.2      0.2      0.1    91    19.3     4.112    32.8    1.347       25      0.35
     5    11  2009   127    4    19.8    0.80     -9     13     -9      0     45     4.4     2.4      0     0.02      0.1      0.1      0.1    87    19.3     4.115    33.0    1.358       25      0.35
     6    11  2009   128    4    20.4    0.80     -9     15     -9      0     45     3.0     1.6      0     0.01      0.1      0.0      0.0    85    19.3     4.116    33.0    1.358       25      0.35
     7    11  2009   129    4    18.4    0.80     -9     17     -9      0     45     1.3     0.7      0     0.00      0.0      0.0      0.0    83    19.3     4.116    33.0    1.358       25      0.35
     8    11  2009    -9    0    17.4    0.80     -9     -9     -9      0     -9     0.0     0.0      0    -9.00      0.0      0.0      0.0   100    19.3     4.116    33.0    1.358       25      0.35
     9    11  2009    -9    0    18.5    0.80     -9     -9     -9      0     -9     0.0     0.0      0    -9.00      0.0      0.0      0.0   100    19.3     4.116    33.0    1.358       25      0.35
    10    11  2009    -9    0    18.3    0.80     -9     -9     -9      0     -9     0.0     0.0      0    -9.00      0.0      0.0      0.0   100    19.3     4.116    33.0    1.358       25      0.35

Legend

DAP          : Days after planting
Stage        : 0: before/after planting
Stage        : 1: emergence or transplant recovery
Stage        : 2: vegetative stage
Stage        : 3: flowering
Stage        : 4: yield formation and ripening
GD           : Growing degrees
Z            : Effective rooting depth
StExp        : Percent water stress reducing leaf expansion
StSto        : Percent water stress inducing stomatal closure
StSen        : Percent water stress triggering early canopy senescence
StSalt       : Percent salinity stress
StWeed       : Relative cover of weeds
CC           : Green total Canopy Cover of crop and weeds
CCw          : Green crop Canopy Cover in weed infested field
StTr         : Percent temperature stress affecting crop transpiration
Kc(Tr)       : Crop coefficient for transpiration
Trx          : Maximum total transpiration of crop and weeds
Tr           : Total transpiration of crop and weeds
TrW          : Crop transpiration in weed infested field
Tr/Trx       : Relative total transpiration of crop and weeds (100 Tr/Trx)
WP           : Crop water productivity adjusted for CO2, soil fertility and products synthesized
Biomass      : Cumulative crop biomass
HI           : Harvest Index adjusted for failure of pollination, inadequate photosynthesis and water stress
Yield Part   : Crop yield (HI x Biomass)
Brelative    : Relative biomass (Reference: no water, no soil fertility, no soil salinity stress, no weed infestation)
WPet         : ET Water productivity for yield part (kg yield produced per m3 water evapotranspired)
