AquaCrop 6.1 (May 2018) - Output created on (date) : 29/07/2022   at (time) : 17:54:07
Soil Water balance

** Run number:  1
   Day Month  Year   DAP Stage     WCTot    Rain     Irri   Surf   Infilt   RO    Drain       CR    Zgwt       Ex       E     E/Ex    Trx       Tr  Tr/Trx    ETx      ET   ET/ETx
                                      mm      mm       mm     mm     mm     mm       mm       mm      m        mm       mm     %       mm       mm    %        mm      mm      %
     2     7  2009     1    1      316.2     9.3      0.0    0.0    9.3    0.0      0.0      0.0   -9.90      4.4      4.4   100      0.0      0.0   100      4.4     4.4    100
     3     7  2009     2    1      311.9     0.0      0.0    0.0    0.0    0.0      0.0      0.0   -9.90      4.3      4.3   100      0.0      0.0   100      4.3     4.3    100
     4     7  2009     3    1      308.1     0.0      0.0    0.0    0.0    0.0      0.1      0.0   -9.90      4.3      3.7    86      0.0      0.0   100      4.3     3.7     86
     5     7  2009     4    1      319.6    14.0      0.0    0.0   14.0    0.0      0.3      0.0   -9.90      2.2      2.2   100      0.0      0.0   100      2.2     2.2    100
     6     7  2009     5    1      315.2     0.0      0.0    0.0    0.0    0.0      0.4      0.0   -9.90      4.1      4.1   100      0.0      0.0   100      4.1     4.1    100
     7     7  2009     6    1      310.7     0.0      0.0    0.0    0.0    0.0      0.5      0.0   -9.90      4.0      4.0   100      0.0      0.0   100      4.0     4.0    100
     8     7  2009     7    2      307.2     0.0      0.0    0.0    0.0    0.0      0.6      0.0   -9.90      3.6      2.9    80      0.0      0.0   100      3.6     2.9     81
     9     7  2009     8    2      304.0     0.0      0.0    0.0    0.0    0.0      0.7      0.0   -9.90      4.3      2.5    57      0.0      0.0   100      4.3     2.5     58
    10     7  2009     9    2      301.7     0.0      0.0    0.0    0.0    0.0      0.6      0.0   -9.90      3.8      1.7    44      0.0      0.0   100      3.8     1.7     44
    11     7  2009    10    2      301.5     4.8      0.0    0.0    4.8    0.0      0.4      0.0   -9.90      4.6      4.6   100      0.0      0.0   100      4.6     4.6    100
    12     7  2009    11    2      301.7     4.8      0.0    0.0    4.8    0.0      0.3      0.0   -9.90      4.3      4.3   100      0.0      0.0   100      4.3     4.3    100
    13     7  2009    12    2      312.2    14.3      0.0    0.0   14.3    0.0      0.2      0.0   -9.90      3.6      3.6   100      0.0      0.0   100      3.6     3.6    100
    14     7  2009    13    2      312.7     4.8      0.0    0.0    4.8    0.0      0.1      0.0   -9.90      4.2      4.2   100      0.0      0.0   100      4.2     4.2    100
    15     7  2009    14    2      318.0     9.5      0.0    0.0    9.5    0.0      0.1      0.0   -9.90      4.0      4.0   100      0.0      0.0   100      4.1     4.1    100
    16     7  2009    15    2      316.1     2.6      0.0    0.0    2.6    0.0      0.1      0.0   -9.90      4.5      4.3    97      0.0      0.0   100      4.5     4.4     97
    17     7  2009    16    2      313.0     0.0      0.0    0.0    0.0    0.0      0.2      0.0   -9.90      4.2      2.9    68      0.0      0.0   100      4.3     2.9     68
    18     7  2009    17    2      310.4     0.0      0.0    0.0    0.0    0.0      0.5      0.0   -9.90      4.0      2.1    52      0.0      0.0   100      4.1     2.1     52
    19     7  2009    18    2      308.2     0.0      0.0    0.0    0.0    0.0      0.7      0.0   -9.90      3.4      1.4    43      0.0      0.0   100      3.4     1.5     43
    20     7  2009    19    2      306.8     2.6      0.0    0.0    2.6    0.0      0.6      0.0   -9.90      3.4      3.3    99      0.0      0.0   100      3.4     3.4     99
    21     7  2009    20    2      311.2     9.6      0.0    0.0    9.6    0.0      0.4      0.0   -9.90      4.7      4.7   100      0.1      0.1   100      4.7     4.7    100
    22     7  2009    21    2      306.8     0.0      0.0    0.0    0.0    0.0      0.3      0.0   -9.90      4.0      4.0   100      0.1      0.1   100      4.1     4.1    100
    23     7  2009    22    2      303.0     0.0      0.0    0.0    0.0    0.0      0.2      0.0   -9.90      4.1      3.6    88      0.1      0.1   100      4.2     3.7     88
    24     7  2009    23    2      303.7     4.8      0.0    0.0    4.8    0.0      0.1      0.0   -9.90      3.9      3.9   100      0.1      0.1   100      4.0     4.0    100
    25     7  2009    24    2      304.8     4.8      0.0    0.0    4.8    0.0      0.1      0.0   -9.90      3.6      3.6   100      0.1      0.1   100      3.6     3.6    100
    26     7  2009    25    2      301.2     0.0      0.0    0.0    0.0    0.0      0.1      0.0   -9.90      3.8      3.4    91      0.1      0.1   100      3.8     3.5     91
    27     7  2009    26    2      316.5    19.4      0.0    0.0   19.4    0.0      0.0      0.0   -9.90      4.0      4.0   100      0.1      0.1   100      4.1     4.1    100
    28     7  2009    27    2      312.7     0.0      0.0    0.0    0.0    0.0      0.1      0.0   -9.90      3.6      3.6   100      0.1      0.1   100      3.7     3.7    100
    29     7  2009    28    2      314.9     6.5      0.0    0.0    6.5    0.0      0.1      0.0   -9.90      4.0      4.0   100      0.1      0.1   100      4.2     4.2    100
    30     7  2009    29    2      322.9    12.9      0.0    0.0   12.9    0.0      0.3      0.0   -9.90      4.5      4.5   100      0.2      0.2   100      4.6     4.6    100
    31     7  2009    30    2      324.8     6.5      0.0    0.0    6.5    0.0      0.5      0.0   -9.90      3.9      3.9   100      0.2      0.2   100      4.1     4.1    100
     1     8  2009    31    2      320.0     0.0      0.0    0.0    0.0    0.0      0.9      0.0   -9.90      3.8      3.7    98      0.2      0.2   100      4.0     3.9     98
     2     8  2009    32    2      325.2    11.2      0.0    0.0   11.2    0.0      1.7      0.0   -9.90      4.2      4.2   100      0.2      0.2   100      4.4     4.4    100
     3     8  2009    33    2      335.2    16.8      0.0    0.0   16.8    0.0      2.1      0.0   -9.90      4.4      4.4   100      0.2      0.2   100      4.6     4.6    100
     4     8  2009    34    2      328.6     0.0      0.0    0.0    0.0    0.0      2.4      0.0   -9.90      4.0      4.0   100      0.3      0.3   100      4.3     4.3    100
     5     8  2009    35    2      331.8    11.2      0.0    0.0   11.2    0.0      3.4      0.0   -9.90      4.2      4.2   100      0.3      0.3   100      4.5     4.5    100
     6     8  2009    36    2      336.3    12.7      0.0    0.0   12.7    0.0      4.5      0.0   -9.90      3.5      3.5   100      0.3      0.3   100      3.7     3.7    100
     7     8  2009    37    2      336.8     8.5      0.0    0.0    8.5    0.0      4.0      0.0   -9.90      3.7      3.7   100      0.3      0.3   100      4.1     4.1    100
     8     8  2009    38    2      337.1     8.5      0.0    0.0    8.5    0.0      4.1      0.0   -9.90      3.7      3.7   100      0.4      0.4   100      4.1     4.1    100
     9     8  2009    39    2      331.9     4.2      0.0    0.0    4.2    0.0      5.5      0.0   -9.90      3.5      3.5   100      0.4      0.4   100      3.9     3.9    100
    10     8  2009    40    2      323.1     0.0      0.0    0.0    0.0    0.0      5.3      0.0   -9.90      3.4      3.1    91      0.4      0.4   100      3.8     3.5     92
    11     8  2009    41    2      326.4    11.8      0.0    0.0   11.8    0.0      4.1      0.0   -9.90      3.8      3.8   100      0.6      0.6   100      4.4     4.4    100
    12     8  2009    42    2      336.7    17.8      0.0    0.0   17.8    0.0      3.3      0.0   -9.90      3.6      3.6   100      0.6      0.6   100      4.1     4.1    100
    13     8  2009    43    2      341.0    11.8      0.0    0.0   11.8    0.0      2.9      0.0   -9.90      3.9      3.9   100      0.7      0.7   100      4.6     4.6    100
    14     8  2009    44    2      332.8     0.0      0.0    0.0    0.0    0.0      4.5      0.0   -9.90      3.1      3.1   100      0.6      0.6   100      3.7     3.7    100
    15     8  2009    45    2      329.4     6.8      0.0    0.0    6.8    0.0      5.9      0.0   -9.90      3.6      3.6   100      0.8      0.8   100      4.4     4.4    100
    16     8  2009    46    2      319.4     0.0      0.0    0.0    0.0    0.0      5.2      0.0   -9.90      3.9      3.8    99      0.9      0.9   100      4.8     4.8    100
    17     8  2009    47    2      318.8     7.5      0.0    0.0    7.5    0.0      3.7      0.0   -9.90      3.5      3.5   100      0.9      0.9   100      4.4     4.4    100
    18     8  2009    48    2      319.3     7.5      0.0    0.0    7.5    0.0      2.4      0.0   -9.90      3.6      3.6   100      1.0      1.0   100      4.6     4.6    100
    19     8  2009    49    2      320.8     7.5      0.0    0.0    7.5    0.0      1.8      0.0   -9.90      3.3      3.3   100      0.9      0.9   100      4.2     4.2    100
    20     8  2009    50    2      315.3     0.0      0.0    0.0    0.0    0.0      1.3      0.0   -9.90      3.2      3.2   100      0.9      0.9   100      4.1     4.1    100
    21     8  2009    51    2      310.1     0.0      0.0    0.0    0.0    0.0      1.1      0.0   -9.90      3.4      3.1    92      1.0      1.0   100      4.3     4.1     94
    22     8  2009    52    2      321.4    16.9      0.0    0.0   16.9    0.0      1.1      0.0   -9.90      3.5      3.5   100      1.1      1.1   100      4.6     4.6    100
    23     8  2009    53    2      324.7     8.5      0.0    0.0    8.5    0.0      0.9      0.0   -9.90      3.3      3.3   100      1.0      1.0   100      4.3     4.3    100
    24     8  2009    54    2      336.8    16.9      0.0    0.0   16.9    0.0      0.9      0.0   -9.90      3.0      3.0   100      0.9      0.9   100      3.9     3.9    100
    25     8  2009    55    2      365.1    33.8      0.0    0.0   33.8    0.0      1.7      0.0   -9.90      3.1      3.1   100      1.0      0.7    72      4.0     3.8     93
    26     8  2009    56    2      352.5     0.0      0.0    0.0    0.0    0.0      9.1      0.0   -9.90      2.9      2.9   100      0.9      0.7    79      3.8     3.6     95
    27     8  2009    57    2      349.5    11.0      0.0    0.0   11.0    0.0      9.8      0.0   -9.90      3.3      3.3   100      1.1      0.9    82      4.3     4.2     96
    28     8  2009    58    2      362.6    27.6      0.0    0.0   27.6    0.0     10.9      0.0   -9.90      3.2      3.2   100      1.0      0.3    34      4.2     3.5     84
    29     8  2009    59    2      348.9     0.0      0.0    0.0    0.0    0.0      9.9      0.0   -9.90      3.0      3.0   100      1.0      0.8    79      4.0     3.8     95
    30     8  2009    60    2      334.4     0.0      0.0    0.0    0.0    0.0      9.8      0.0   -9.90      3.5      3.5   100      1.2      1.2   100      4.7     4.7    100
    31     8  2009    61    2      336.8    16.5      0.0    0.0   16.5    0.0      9.4      0.0   -9.90      3.5      3.5   100      1.2      1.2   100      4.7     4.7    100
     1     9  2009    62    2      325.4     0.0      0.0    0.0    0.0    0.0      7.1      0.0   -9.90      3.3      3.3   100      1.1      1.1   100      4.3     4.3    100
     2     9  2009    63    2      315.6     0.0      0.0    0.0    0.0    0.0      4.8      0.0   -9.90      3.7      3.7   100      1.3      1.3   100      5.0     5.0    100
     3     9  2009    64    2      322.3    14.3      0.0    0.0   14.3    0.0      3.3      0.0   -9.90      3.2      3.2   100      1.1      1.1   100      4.3     4.3    100
     4     9  2009    65    2      315.6     0.0      0.0    0.0    0.0    0.0      2.3      0.0   -9.90      3.3      3.3   100      1.1      1.1   100      4.4     4.4    100
     5     9  2009    66    2      316.9     7.2      0.0    0.0    7.2    0.0      1.7      0.0   -9.90      3.2      3.2   100      1.0      1.0   100      4.2     4.2    100
     6     9  2009    67    3      340.3    28.5      0.0    0.0   28.5    0.0      1.3      0.0   -9.90      2.9      2.9   100      0.9      0.9   100      3.8     3.8    100
     7     9  2009    68    3      339.2     5.7      0.0    0.0    5.7    0.0      2.2      0.0   -9.90      3.4      3.4   100      1.1      1.1   100      4.5     4.5    100
     8     9  2009    69    3      330.8     0.0      0.0    0.0    0.0    0.0      4.8      0.0   -9.90      2.8      2.8   100      0.9      0.9   100      3.7     3.7    100
     9     9  2009    70    3      338.1    17.1      0.0    0.0   17.1    0.0      6.4      0.0   -9.90      2.5      2.5   100      0.8      0.8   100      3.4     3.4    100
    10     9  2009    71    3      345.7    17.1      0.0    0.0   17.1    0.0      5.1      0.0   -9.90      3.3      3.3   100      1.1      1.1   100      4.4     4.4    100
    11     9  2009    72    3      349.7    13.4      0.0    0.0   13.4    0.0      5.1      0.0   -9.90      3.3      3.3   100      1.1      1.1    99      4.3     4.3    100
    12     9  2009    73    3      337.0     0.0      0.0    0.0    0.0    0.0      8.7      0.0   -9.90      3.0      3.0   100      1.0      1.0   100      4.0     4.0    100
    13     9  2009    74    3      324.6     0.0      0.0    0.0    0.0    0.0      7.8      0.0   -9.90      3.4      3.4   100      1.1      1.1   100      4.5     4.5    100
    14     9  2009    75    3      328.3    13.4      0.0    0.0   13.4    0.0      5.9      0.0   -9.90      2.9      2.9   100      1.0      1.0   100      3.9     3.9    100
    15     9  2009    76    3      319.0     0.0      0.0    0.0    0.0    0.0      4.3      0.0   -9.90      3.8      3.8   100      1.2      1.2   100      5.0     5.0    100
    16     9  2009    77    3      329.3    18.2      0.0    0.0   18.2    0.0      3.1      0.0   -9.90      3.7      3.7   100      1.2      1.2   100      4.9     4.9    100
    17     9  2009    78    3      323.0     0.0      0.0    0.0    0.0    0.0      2.4      0.0   -9.90      2.9      2.9   100      1.0      1.0   100      3.9     3.9    100
    18     9  2009    79    3      328.5    12.1      0.0    0.0   12.1    0.0      2.3      0.0   -9.90      3.3      3.3   100      1.1      1.1   100      4.3     4.3    100
    19     9  2009    80    4      322.0     0.0      0.0    0.0    0.0    0.0      2.6      0.0   -9.90      2.9      2.9   100      1.0      1.0   100      3.9     3.9    100
    20     9  2009    81    4      314.3     0.0      0.0    0.0    0.0    0.0      3.0      0.0   -9.90      3.5      3.5   100      1.1      1.1   100      4.6     4.6    100
    21     9  2009    82    4      308.0     0.0      0.0    0.0    0.0    0.0      2.4      0.0   -9.90      3.3      2.8    86      1.0      1.0   100      4.3     3.9     90
    22     9  2009    83    4      309.1     6.5      0.0    0.0    6.5    0.0      1.7      0.0   -9.90      2.8      2.8   100      0.9      0.9   100      3.7     3.7    100
    23     9  2009    84    4      303.3     0.0      0.0    0.0    0.0    0.0      1.2      0.0   -9.90      3.5      3.5   100      1.1      1.1   100      4.6     4.6    100
    24     9  2009    85    4      298.7     0.0      0.0    0.0    0.0    0.0      0.8      0.0   -9.90      3.5      2.8    79      1.1      1.1   100      4.6     3.9     84
    25     9  2009    86    4      313.9    19.5      0.0    0.0   19.5    0.0      0.4      0.0   -9.90      2.9      2.9   100      0.9      0.9   100      3.9     3.9    100
    26     9  2009    87    4      308.9     0.0      0.0    0.0    0.0    0.0      0.3      0.0   -9.90      3.6      3.6   100      1.1      1.1   100      4.7     4.7    100
    27     9  2009    88    4      303.1     0.0      0.0    0.0    0.0    0.0      0.2      0.0   -9.90      4.3      4.2    99      1.3      1.3   100      5.6     5.6     99
    28     9  2009    89    4      298.9     0.0      0.0    0.0    0.0    0.0      0.1      0.0   -9.90      4.3      2.7    64      1.3      1.3   100      5.6     4.0     73
    29     9  2009    90    4      296.1     0.0      0.0    0.0    0.0    0.0      0.1      0.0   -9.90      3.8      1.5    40      1.1      1.1   100      4.9     2.7     54
    30     9  2009    91    4      293.3     0.0      0.0    0.0    0.0    0.0      0.1      0.0   -9.90      4.6      1.4    30      1.4      1.4   100      6.0     2.8     46
     1    10  2009    92    4      291.2     0.0      0.0    0.0    0.0    0.0      0.0      0.0   -9.90      3.7      0.9    24      1.1      1.1   100      4.8     2.0     41
     2    10  2009    93    4      289.5     0.0      0.0    0.0    0.0    0.0      0.0      0.0   -9.90      3.5      0.7    20      1.0      1.0   100      4.5     1.7     38
     3    10  2009    94    4      287.7     0.0      0.0    0.0    0.0    0.0      0.0      0.0   -9.90      3.9      0.6    17      1.1      1.1   100      5.0     1.8     35
     4    10  2009    95    4      285.6     0.0      0.0    0.0    0.0    0.0      0.0      0.0   -9.90      5.1      0.7    14      1.5      1.5   100      6.6     2.2     33
     5    10  2009    96    4      283.8     0.0      0.0    0.0    0.0    0.0      0.0      0.0   -9.90      4.4      0.5    11      1.2      1.2   100      5.6     1.7     31
     6    10  2009    97    4      282.4     0.0      0.0    0.0    0.0    0.0      0.0      0.0   -9.90      3.8      0.4    10      1.1      1.1   100      4.9     1.4     29
     7    10  2009    98    4      280.4     0.0      0.0    0.0    0.0    0.0      0.0      0.0   -9.90      5.7      0.5     8      1.5      1.5   100      7.2     2.0     28
     8    10  2009    99    4      279.1     0.0      0.0    0.0    0.0    0.0      0.0      0.0   -9.90      3.8      0.3     7      1.0      1.0   100      4.8     1.3     27
     9    10  2009   100    4      277.7     0.0      0.0    0.0    0.0    0.0      0.0      0.0   -9.90      4.2      0.3     6      1.1      1.1   100      5.3     1.4     26
    10    10  2009   101    4      276.4     0.0      0.0    0.0    0.0    0.0      0.0      0.0   -9.90      4.2      0.2     6      1.1      1.1   100      5.3     1.3     25
    11    10  2009   102    4      275.1     0.0      0.0    0.0    0.0    0.0      0.0      0.0   -9.90      4.4      0.2     6      1.1      1.1   100      5.5     1.3     25
    12    10  2009   103    4      273.6     0.0      0.0    0.0    0.0    0.0      0.0      0.0   -9.90      4.8      0.3     5      1.2      1.2   100      6.0     1.4     24
    13    10  2009   104    4      272.4     0.0      0.0    0.0    0.0    0.0      0.0      0.0   -9.90      4.1      0.2     5      1.0      1.0   100      5.0     1.2     24
    14    10  2009   105    4      271.1     0.0      0.0    0.0    0.0    0.0      0.0      0.0   -9.90      4.6      0.2     5      1.1      1.1   100      5.7     1.3     23
    15    10  2009   106    4      269.8     0.0      0.0    0.0    0.0    0.0      0.0      0.0   -9.90      4.8      0.2     5      1.1      1.1   100      5.9     1.3     23
    16    10  2009   107    4      268.3     0.0      0.0    0.0    0.0    0.0      0.0      0.0   -9.90      5.3      0.3     5      1.2      1.2   100      6.5     1.4     22
    17    10  2009   108    4      269.2     5.3      0.0    0.0    5.3    0.0      0.0      0.0   -9.90      3.6      3.6   100      0.8      0.8   100      4.4     4.4    100
    18    10  2009   109    4      269.9     5.3      0.0    0.0    5.3    0.0      0.0      0.0   -9.90      3.9      3.9   100      0.8      0.8   100      4.7     4.7    100
    19    10  2009   110    4      267.2     0.0      0.0    0.0    0.0    0.0      0.0      0.0   -9.90      4.6      1.7    36      1.0      1.0   100      5.6     2.6     47
    20    10  2009   111    4      265.8     0.0      0.0    0.0    0.0    0.0      0.0      0.0   -9.90      5.5      0.4     6      1.1      1.1   100      6.6     1.5     22
    21    10  2009   112    4      264.2     0.0      0.0    0.0    0.0    0.0      0.0      0.0   -9.90      6.1      0.4     6      1.2      1.2   100      7.3     1.6     22
    22    10  2009   113    4      262.9     0.0      0.0    0.0    0.0    0.0      0.0      0.0   -9.90      5.2      0.3     6      1.0      1.0   100      6.2     1.3     21
    23    10  2009   114    4      261.5     0.0      0.0    0.0    0.0    0.0      0.0      0.0   -9.90      6.0      0.3     6      1.1      1.1   100      7.1     1.4     20
    24    10  2009   115    4      260.0     0.0      0.0    0.0    0.0    0.0      0.0      0.0   -9.90      6.1      0.3     5      1.1      1.1   100      7.1     1.4     20
    25    10  2009   116    4      259.2     0.0      0.0    0.0    0.0    0.0      0.0      0.0   -9.90      3.8      0.2     5      0.6      0.6   100      4.5     0.8     19
    26    10  2009   117    4      258.2     1.2      0.0    0.0    1.2    0.0      0.0      0.0   -9.90      5.2      1.4    27      0.8      0.8   100      6.1     2.2     37
    27    10  2009   118    4      257.3     0.0      0.0    0.0    0.0    0.0      0.0      0.0   -9.90      4.4      0.2     5      0.7      0.7   100      5.0     0.9     17
    28    10  2009   119    4      256.3     0.0      0.0    0.0    0.0    0.0      0.0      0.0   -9.90      5.0      0.2     5      0.7      0.7   100      5.7     0.9     16
    29    10  2009   120    4      255.5     0.0      0.0    0.0    0.0    0.0      0.0      0.0   -9.90      4.9      0.2     5      0.6      0.6   100      5.6     0.9     15
    30    10  2009   121    4      254.7     0.0      0.0    0.0    0.0    0.0      0.0      0.0   -9.90      5.2      0.2     5      0.6      0.6   100      5.8     0.8     14
    31    10  2009   122    4      253.9     0.0      0.0    0.0    0.0    0.0      0.0      0.0   -9.90      5.6      0.3     5      0.5      0.5   100      6.2     0.8     13
     1    11  2009   123    4      253.1     0.0      0.0    0.0    0.0    0.0      0.0      0.0   -9.90      5.9      0.3     4      0.5      0.5   100      6.4     0.8     12
     2    11  2009   124    4      252.6     0.5      0.0    0.0    0.5    0.0      0.0      0.0   -9.90      4.9      0.7    14      0.3      0.3   100      5.2     1.0     20
     3    11  2009   125    4      252.3     0.5      0.0    0.0    0.5    0.0      0.0      0.0   -9.90      3.4      0.6    18      0.2      0.2   100      3.6     0.8     22
     4    11  2009   126    4      251.9     0.3      0.0    0.0    0.3    0.0      0.0      0.0   -9.90      5.1      0.5    10      0.2      0.2   100      5.3     0.7     13
     5    11  2009   127    4      251.6     0.0      0.0    0.0    0.0    0.0      0.0      0.0   -9.90      5.7      0.2     4      0.1      0.1   100      5.8     0.4      6
     6    11  2009   128    4      251.3     0.0      0.0    0.0    0.0    0.0      0.0      0.0   -9.90      5.8      0.2     4      0.1      0.1   100      5.9     0.3      5
     7    11  2009   129    4      251.0     0.0      0.0    0.0    0.0    0.0      0.0      0.0   -9.90      6.3      0.2     4      0.0      0.0   100      6.3     0.3      4
     8    11  2009    -9    0      250.8     0.0      0.0    0.0    0.0    0.0      0.0      0.0   -9.90      6.6      0.2     4      0.0      0.0   100      6.6     0.2      4
     9    11  2009    -9    0      250.5     0.0      0.0    0.0    0.0    0.0      0.0      0.0   -9.90      6.2      0.2     4      0.0      0.0   100      6.2     0.2      4
    10    11  2009    -9    0      250.3     0.0      0.0    0.0    0.0    0.0      0.0      0.0   -9.90      6.1      0.2     4      0.0      0.0   100      6.1     0.2      4

Legend

DAP          : Days after planting
Stage        : 0: before/after planting
Stage        : 1: emergence or transplant recovery
Stage        : 2: vegetative stage
Stage        : 3: flowering
Stage        : 4: yield formation and ripening
WCTot        : Water content in total soil profile
Rain         : Rainfall
Irri         : Water applied by irrigation
Surf         : Stored water on soil surface between bunds
Infilt       : Infiltrated water in soil profile
RO           : Surface runoff
Drain        : Water drained out of the soil profile
CR           : Water moved upward by capillary rise
Zgwt         : Depth of the groundwater table (-9.90 if absent)
Ex           : Maximum soil evaporation
E            : Soil evaporation
E/Ex         : Relative soil evaporation (100 E/Ex)
Trx          : Maximum crop transpiration
Tr           : Total transpiration of crop and weeds
Tr/Trx       : Relative transpiration (100 Tr/Trx)
ETx          : Evapotranspiration maximale
ET           : Evapotranspiration
ET/ETx       : Evapotranspiration relative (100 ET/ETx)
