AquaCrop 6.1 (May 2018) - Output created on (date) : 29/07/2022   at (time) : 17:54:07
Crop development and production

** Run number:  1
   Day Month  Year   DAP Stage    GD       Z     StExp  StSto  StSen StSalt StWeed   CC      CCw     StTr  Kc(Tr)     Trx      Tr       TrW  Tr/Trx   WP    Biomass     HI  YieldPart  Brelative   WPet
                                °C-day     m       %      %      %      %      %      %       %       %       -        mm       mm       mm    %     g/m2    ton/ha      %    ton/ha       %      kg/m3
     2     7  2009     1    1    18.0    0.30     -9     -9     -9      0     -9     0.0     0.0      0    -9.00      0.0      0.0      0.0   100    34.2     0.000    -9.9    0.000       -9      0.00
     3     7  2009     2    1    19.1    0.30     -9     -9     -9      0     -9     0.0     0.0      0    -9.00      0.0      0.0      0.0   100    34.2     0.000    -9.9    0.000       -9      0.00
     4     7  2009     3    1    20.2    0.30     -9     -9     -9      0     -9     0.0     0.0      0    -9.00      0.0      0.0      0.0   100    34.2     0.000    -9.9    0.000       -9      0.00
     5     7  2009     4    1    19.1    0.30     -9     -9     -9      0     -9     0.0     0.0      0    -9.00      0.0      0.0      0.0   100    34.2     0.000    -9.9    0.000       -9      0.00
     6     7  2009     5    1    20.0    0.30     -9     -9     -9      0     -9     0.0     0.0      0    -9.00      0.0      0.0      0.0   100    34.2     0.000    -9.9    0.000       -9      0.00
     7     7  2009     6    1    19.6    0.30     -9     -9     -9      0     -9     0.0     0.0      0    -9.00      0.0      0.0      0.0   100    34.2     0.000    -9.9    0.000       -9      0.00
     8     7  2009     7    2    20.1    0.30     -9      0      0      0     45     0.2     0.1      0     0.00      0.0      0.0      0.0   100    34.2     0.001    -9.9    0.000       74      0.00
     9     7  2009     8    2    20.5    0.30     -9      0      0      0     45     0.2     0.1      0     0.00      0.0      0.0      0.0   100    34.2     0.002    -9.9    0.000       69      0.00
    10     7  2009     9    2    21.0    0.30     -9      0      0      0     45     0.3     0.1      0     0.00      0.0      0.0      0.0   100    34.2     0.003    -9.9    0.000       66      0.00
    11     7  2009    10    2    19.0    0.30      0      0      0      0     45     0.3     0.2      0     0.01      0.0      0.0      0.0   100    34.2     0.005    -9.9    0.000       64      0.00
    12     7  2009    11    2    20.5    0.30      0      0      0      0     45     0.3     0.2      0     0.01      0.0      0.0      0.0   100    34.2     0.006    -9.9    0.000       62      0.00
    13     7  2009    12    2    19.5    0.30      0      0      0      0     45     0.4     0.2      0     0.01      0.0      0.0      0.0   100    34.2     0.008    -9.9    0.000       59      0.00
    14     7  2009    13    2    19.8    0.31      0      0      0      0     45     0.4     0.2      0     0.01      0.0      0.0      0.0   100    34.2     0.010    -9.9    0.000       57      0.00
    15     7  2009    14    2    18.3    0.31      0      0      0      0     45     0.5     0.2      0     0.01      0.0      0.0      0.0   100    34.2     0.012    -9.9    0.000       55      0.00
    16     7  2009    15    2    18.6    0.32      0      0      0      0     45     0.5     0.3      0     0.01      0.0      0.0      0.0   100    34.2     0.014    -9.9    0.000       53      0.00
    17     7  2009    16    2    19.5    0.33      0      0      0      0     45     0.6     0.3      0     0.01      0.0      0.0      0.0   100    34.2     0.016    -9.9    0.000       50      0.00
    18     7  2009    17    2    19.3    0.34      0      0      0      0     45     0.6     0.3      0     0.01      0.0      0.0      0.0   100    34.2     0.019    -9.9    0.000       48      0.00
    19     7  2009    18    2    20.6    0.34      0      0      0      0     45     0.7     0.4      0     0.01      0.0      0.0      0.0   100    34.2     0.022    -9.9    0.000       46      0.00
    20     7  2009    19    2    20.6    0.35      0      0      0      0     45     0.8     0.4      0     0.01      0.0      0.0      0.0   100    34.2     0.026    -9.9    0.000       44      0.00
    21     7  2009    20    2    16.9    0.36      0      0      0      0     45     0.8     0.5      0     0.02      0.1      0.1      0.0   100    34.2     0.030    -9.9    0.000       42      0.00
    22     7  2009    21    2    19.5    0.36      0      0      0      0     45     0.9     0.5      0     0.02      0.1      0.1      0.0   100    34.2     0.034    -9.9    0.000       40      0.00
    23     7  2009    22    2    20.1    0.37      0      0      0      0     45     1.0     0.6      0     0.02      0.1      0.1      0.1   100    34.2     0.038    -9.9    0.000       39      0.00
    24     7  2009    23    2    20.8    0.37      0      0      0      0     45     1.2     0.6      0     0.02      0.1      0.1      0.1   100    34.2     0.044    -9.9    0.000       37      0.00
    25     7  2009    24    2    20.7    0.38      0      0      0      0     45     1.3     0.7      0     0.02      0.1      0.1      0.1   100    34.2     0.049    -9.9    0.000       35      0.00
    26     7  2009    25    2    20.5    0.39      0      0      0      0     45     1.4     0.8      0     0.03      0.1      0.1      0.1   100    34.2     0.056    -9.9    0.000       33      0.00
    27     7  2009    26    2    19.3    0.39      0      0      0      0     45     1.6     0.9      0     0.03      0.1      0.1      0.1   100    34.2     0.063    -9.9    0.000       32      0.00
    28     7  2009    27    2    20.0    0.40      0      0      0      0     45     1.8     1.0      0     0.03      0.1      0.1      0.1   100    34.2     0.071    -9.9    0.000       30      0.00
    29     7  2009    28    2    18.2    0.41      0      0      0      0     45     1.9     1.1      0     0.03      0.1      0.1      0.1   100    34.2     0.079    -9.9    0.000       29      0.00
    30     7  2009    29    2    18.3    0.41      0      0      0      0     45     2.2     1.2      0     0.04      0.2      0.2      0.1   100    34.2     0.089    -9.9    0.000       27      0.00
    31     7  2009    30    2    19.5    0.42      0      0      0      0     45     2.4     1.3      0     0.04      0.2      0.2      0.1   100    34.2     0.100    -9.9    0.000       26      0.00
     1     8  2009    31    2    20.1    0.42      0      0      0      0     45     2.7     1.5      0     0.05      0.2      0.2      0.1   100    34.2     0.112    -9.9    0.000       25      0.00
     2     8  2009    32    2    18.6    0.43      0      0      0      0     45     3.0     1.6      0     0.05      0.2      0.2      0.2   100    34.2     0.125    -9.9    0.000       24      0.00
     3     8  2009    33    2    17.4    0.44      0      0      0      0     45     3.3     1.8      0     0.06      0.2      0.2      0.2   100    34.2     0.140    -9.9    0.000       23      0.00
     4     8  2009    34    2    19.3    0.44      0      0      0      0     45     3.7     2.0      0     0.06      0.3      0.3      0.2   100    34.2     0.156    -9.9    0.000       22      0.00
     5     8  2009    35    2    19.1    0.45      0      0      0      0     45     4.1     2.3      0     0.07      0.3      0.3      0.2   100    34.2     0.174    -9.9    0.000       21      0.00
     6     8  2009    36    2    19.8    0.45      0      0      0      0     45     4.6     2.5      0     0.08      0.3      0.3      0.2   100    34.2     0.194    -9.9    0.000       20      0.00
     7     8  2009    37    2    18.9    0.46      0      0      0      0     45     5.1     2.8      0     0.09      0.3      0.3      0.2   100    34.2     0.216    -9.9    0.000       19      0.00
     8     8  2009    38    2    19.0    0.46      0      0      0      0     45     5.8     3.2      0     0.10      0.4      0.4      0.3   100    34.2     0.241    -9.9    0.000       19      0.00
     9     8  2009    39    2    19.0    0.47      0      0      0      0     45     6.4     3.5      0     0.11      0.4      0.4      0.3   100    34.2     0.269    -9.9    0.000       19      0.00
    10     8  2009    40    2    20.0    0.47      0      0      0      0     45     7.2     4.0      0     0.12      0.4      0.4      0.3   100    34.1     0.300    -9.9    0.000       19      0.00
    11     8  2009    41    2    18.5    0.48      0      0      0      0     45     8.1     4.4      0     0.14      0.6      0.6      0.4   100    34.1     0.334    -9.9    0.000       19      0.00
    12     8  2009    42    2    19.1    0.49      0      0      0      0     45     9.0     5.0      0     0.15      0.6      0.6      0.4   100    34.1     0.372    -9.9    0.000       19      0.00
    13     8  2009    43    2    17.8    0.49      0      0      0      0     45    10.1     5.6      0     0.17      0.7      0.7      0.5   100    34.1     0.414    -9.9    0.000       20      0.00
    14     8  2009    44    2    20.1    0.50      0      0      0      0     45    11.0     6.1      0     0.19      0.6      0.6      0.5   100    34.1     0.460    -9.9    0.000       20      0.00
    15     8  2009    45    2    17.8    0.50      0      0      0      0     45    11.8     6.5      0     0.20      0.8      0.8      0.6   100    34.1     0.509    -9.9    0.000       21      0.00
    16     8  2009    46    2    16.9    0.51      0      0      0      0     45    12.6     6.9      0     0.21      0.9      0.9      0.7   100    34.0     0.560    -9.9    0.000       21      0.00
    17     8  2009    47    2    19.0    0.51      0      0      0      0     45    13.2     7.3      0     0.22      0.9      0.9      0.6   100    34.0     0.614    -9.9    0.000       22      0.00
    18     8  2009    48    2    18.9    0.52      0      0      0      0     45    13.7     7.6      0     0.23      1.0      1.0      0.7   100    34.0     0.669    -9.9    0.000       22      0.00
    19     8  2009    49    2    17.9    0.52      0      0      0      0     45    14.2     7.8      0     0.23      0.9      0.9      0.7   100    33.9     0.726    -9.9    0.000       23      0.00
    20     8  2009    50    2    20.3    0.53      0      0      0      0     45    14.6     8.0      0     0.24      0.9      0.9      0.7   100    33.9     0.784    -9.9    0.000       23      0.00
    21     8  2009    51    2    19.8    0.53      0      0      0      0     45    14.9     8.2      0     0.25      1.0      1.0      0.7   100    33.8     0.844    -9.9    0.000       23      0.00
    22     8  2009    52    2    18.0    0.54      0      0      0      0     45    15.2     8.4      0     0.25      1.1      1.1      0.8   100    33.8     0.904    -9.9    0.000       24      0.00
    23     8  2009    53    2    18.2    0.54      0      0      0      0     45    15.4     8.5      0     0.25      1.0      1.0      0.7   100    33.7     0.965    -9.9    0.000       24      0.00
    24     8  2009    54    2    19.4    0.55      0      0      0      0     45    15.7     8.6      0     0.26      0.9      0.9      0.7   100    33.6     1.027    -9.9    0.000       25      0.00
    25     8  2009    55    2    18.8    0.55      0     28      0      0     45    15.8     8.7      0     0.26      1.0      0.7      0.5    72    33.5     1.072    -9.9    0.000       25      0.00
    26     8  2009    56    2    19.4    0.56      0     21      0      0     45    16.0     8.8      0     0.26      0.9      0.7      0.5    79    33.5     1.121    -9.9    0.000       25      0.00
    27     8  2009    57    2    20.4    0.56      0     18      0      0     45    16.1     8.9      0     0.26      1.1      0.9      0.6    82    33.4     1.173    -9.9    0.000       25      0.00
    28     8  2009    58    2    18.6    0.57      0     66      0      0     45    16.2     8.9      0     0.27      1.0      0.3      0.2    34    33.4     1.194    -9.9    0.000       24      0.00
    29     8  2009    59    2    19.8    0.57      0     21      0      0     45    16.4     9.0      0     0.27      1.0      0.8      0.6    79    33.4     1.245    -9.9    0.000       24      0.00
    30     8  2009    60    2    19.8    0.58      0      0      0      0     45    16.5     9.1      0     0.27      1.2      1.2      0.8   100    33.3     1.308    -9.9    0.000       25      0.00
    31     8  2009    61    2    17.9    0.58      0      0      0      0     45    16.6     9.1      0     0.27      1.2      1.2      0.8   100    33.1     1.372    -9.9    0.000       25      0.00
     1     9  2009    62    2    19.5    0.59      0      0      0      0     45    16.6     9.2      0     0.27      1.1      1.1      0.8   100    33.0     1.436    -9.9    0.000       25      0.00
     2     9  2009    63    2    18.5    0.59      0      0      0      0     45    16.7     9.2      0     0.27      1.3      1.3      0.9   100    32.9     1.500    -9.9    0.000       25      0.00
     3     9  2009    64    2    18.0    0.60      0      0      0      0     45    16.8     9.2      0     0.27      1.1      1.1      0.8   100    32.8     1.563    -9.9    0.000       26      0.00
     4     9  2009    65    2    19.8    0.60      0      0      0      0     45    16.5     9.1      0     0.26      1.1      1.1      0.8   100    32.6     1.625    -9.9    0.000       26      0.00
     5     9  2009    66    2    18.4    0.61      0      0      0      0     45    16.5     9.1      0     0.27      1.0      1.0      0.7   100    32.4     1.686    -9.9    0.000       26      0.00
     6     9  2009    67    3    19.0    0.61      0      0      0      0     45    16.6     9.1      0     0.27      0.9      0.9      0.7   100    32.3     1.747    -9.9    0.000       26      0.00
     7     9  2009    68    3    19.4    0.62      0      0      0      0     45    16.6     9.1      0     0.27      1.1      1.1      0.8   100    32.2     1.808    -9.9    0.000       26      0.00
     8     9  2009    69    3    20.0    0.62      0      0      0      0     45    16.6     9.1      0     0.27      0.9      0.9      0.6   100    32.0     1.869    -9.9    0.000       26      0.00
     9     9  2009    70    3    18.9    0.63      0      0      0      0     45    16.6     9.1      0     0.27      0.8      0.8      0.6   100    31.9     1.929     1.4    0.027       27      0.01
    10     9  2009    71    3    19.3    0.63      0      0      0      0     45    16.6     9.1      0     0.27      1.1      1.1      0.8   100    31.7     1.990     1.6    0.032       27      0.01
    11     9  2009    72    3    20.0    0.64      0      1      0      0     45    16.6     9.1      0     0.27      1.1      1.1      0.8    99    31.5     2.050     1.8    0.037       27      0.01
    12     9  2009    73    3    19.8    0.64     -9      0      0      0     45    16.3     9.0      0     0.26      1.0      1.0      0.7   100    31.4     2.108     2.0    0.042       27      0.01
    13     9  2009    74    3    19.8    0.65     -9      0      0      0     45    16.5     9.1      0     0.26      1.1      1.1      0.8   100    31.0     2.166     2.3    0.049       27      0.02
    14     9  2009    75    3    20.4    0.65     -9      0      0      0     45    16.6     9.1      0     0.26      1.0      1.0      0.7   100    30.8     2.224     2.5    0.056       27      0.02
    15     9  2009    76    3    19.7    0.66     -9      0      0      0     45    16.6     9.1      0     0.27      1.2      1.2      0.9   100    30.6     2.282     2.8    0.065       27      0.02
    16     9  2009    77    3    17.3    0.66     -9      0      0      0     45    16.6     9.1      0     0.27      1.2      1.2      0.8   100    30.4     2.339     3.2    0.074       27      0.02
    17     9  2009    78    3    18.9    0.66     -9      0      0      0     45    16.6     9.1      0     0.26      1.0      1.0      0.7   100    30.2     2.396     3.5    0.085       27      0.03
    18     9  2009    79    3    19.5    0.67     -9      0      0      0     45    16.6     9.1      0     0.26      1.1      1.1      0.8   100    30.0     2.453     3.9    0.097       27      0.03
    19     9  2009    80    4    19.8    0.67     -9      0      0      0     45    16.5     9.1      0     0.26      1.0      1.0      0.7   100    29.8     2.509     4.4    0.110       27      0.03
    20     9  2009    81    4    20.4    0.68     -9      0      0      0     45    16.5     9.1      0     0.26      1.1      1.1      0.8   100    29.6     2.564     4.9    0.125       27      0.04
    21     9  2009    82    4    20.9    0.68     -9      0      0      0     45    16.5     9.1      0     0.26      1.0      1.0      0.7   100    29.4     2.619     5.4    0.141       27      0.04
    22     9  2009    83    4    19.4    0.69     -9      0      0      0     45    16.5     9.1      0     0.26      0.9      0.9      0.6   100    29.1     2.673     6.0    0.160       27      0.05
    23     9  2009    84    4    19.3    0.69     -9      0      0      0     45    16.4     9.0      0     0.26      1.1      1.1      0.8   100    28.9     2.727     6.6    0.180       27      0.05
    24     9  2009    85    4    20.0    0.70     -9      0      0      0     45    16.4     9.0      0     0.26      1.1      1.1      0.8   100    28.7     2.780     7.2    0.201       27      0.06
    25     9  2009    86    4    18.9    0.70     -9      0      0      0     45    16.3     9.0      0     0.26      0.9      0.9      0.7   100    28.4     2.832     7.8    0.222       27      0.06
    26     9  2009    87    4    19.8    0.71     -9      0      0      0     45    16.3     8.9      0     0.25      1.1      1.1      0.8   100    28.2     2.883     8.5    0.244       27      0.07
    27     9  2009    88    4    19.0    0.71     -9      0      0      0     45    16.2     8.9      0     0.25      1.3      1.3      0.9   100    27.9     2.933     9.1    0.267       27      0.08
    28     9  2009    89    4    20.5    0.72     -9      0      0      0     45    16.1     8.9      0     0.25      1.3      1.3      0.9   100    27.7     2.983     9.7    0.290       27      0.08
    29     9  2009    90    4    21.2    0.72     -9      0      0      0     45    16.1     8.8      0     0.25      1.1      1.1      0.8   100    27.4     3.031    10.3    0.313       27      0.09
    30     9  2009    91    4    18.1    0.72     -9      0      0      0     45    16.0     8.8      0     0.25      1.4      1.4      1.0   100    27.2     3.079    11.0    0.337       27      0.09
     1    10  2009    92    4    20.4    0.73     -9      0      0      0     45    15.9     8.8      0     0.24      1.1      1.1      0.8   100    26.9     3.126    11.6    0.362       27      0.10
     2    10  2009    93    4    20.5    0.73     -9      0      0      0     45    15.8     8.7      0     0.24      1.0      1.0      0.7   100    26.7     3.172    12.2    0.387       27      0.11
     3    10  2009    94    4    20.9    0.74     -9      0      0      0     45    15.7     8.7      0     0.24      1.1      1.1      0.8   100    26.4     3.216    12.8    0.413       27      0.11
     4    10  2009    95    4    18.8    0.74     -9      0      0      0     45    15.6     8.6      0     0.24      1.5      1.5      1.0   100    26.2     3.260    13.5    0.439       27      0.12
     5    10  2009    96    4    20.5    0.75     -9      0      0      0     45    15.5     8.5      0     0.23      1.2      1.2      0.9   100    25.9     3.303    14.1    0.465       27      0.12
     6    10  2009    97    4    21.0    0.75     -9      0      0      0     45    15.4     8.5      0     0.23      1.1      1.1      0.8   100    25.6     3.345    14.7    0.492       27      0.13
     7    10  2009    98    4    17.3    0.76     -9      0      0      0     45    15.3     8.4      0     0.23      1.5      1.5      1.1   100    25.4     3.386    15.3    0.519       27      0.14
     8    10  2009    99    4    19.0    0.76     -9      0      0      0     45    15.2     8.4      0     0.22      1.0      1.0      0.7   100    25.1     3.426    15.9    0.546       27      0.14
     9    10  2009   100    4    20.5    0.76     -9      0      0      0     45    15.1     8.3      0     0.22      1.1      1.1      0.8   100    24.9     3.465    16.6    0.574       27      0.15
    10    10  2009   101    4    20.5    0.77     -9      0      0      0     45    14.9     8.2      0     0.22      1.1      1.1      0.8   100    24.6     3.502    17.2    0.602       27      0.16
    11    10  2009   102    4    20.7    0.77     -9      0      0      0     45    14.8     8.1      0     0.21      1.1      1.1      0.8   100    24.3     3.539    17.8    0.630       27      0.17
    12    10  2009   103    4    20.1    0.78     -9      0      0      0     45    14.7     8.1      0     0.21      1.2      1.2      0.8   100    24.1     3.575    18.4    0.659       26      0.17
    13    10  2009   104    4    20.0    0.78     -9      0      0      0     45    14.5     8.0      0     0.20      1.0      1.0      0.7   100    23.8     3.610    19.1    0.688       26      0.18
    14    10  2009   105    4    19.7    0.79     -9      0      0      0     45    14.4     7.9      0     0.20      1.1      1.1      0.8   100    23.6     3.643    19.7    0.717       26      0.19
    15    10  2009   106    4    19.5    0.79     -9      0      0      0     45    14.2     7.8      0     0.20      1.1      1.1      0.8   100    23.3     3.676    20.3    0.746       26      0.19
    16    10  2009   107    4    19.1    0.79     -9      0      0      0     45    14.1     7.7      0     0.19      1.2      1.2      0.8   100    23.1     3.708    20.9    0.776       26      0.20
    17    10  2009   108    4    20.0    0.80     -9      0     -9      0     45    13.8     7.6      0     0.18      0.8      0.8      0.6   100    22.8     3.738    21.5    0.805       26      0.21
    18    10  2009   109    4    20.0    0.80     -9      0     -9      0     45    13.7     7.5      0     0.18      0.8      0.8      0.6   100    22.6     3.767    22.2    0.835       26      0.21
    19    10  2009   110    4    20.0    0.80     -9      0     -9      0     45    13.6     7.5      0     0.18      1.0      1.0      0.7   100    22.4     3.796    22.8    0.865       26      0.22
    20    10  2009   111    4    19.9    0.80     -9      0     -9      0     45    13.4     7.4      0     0.17      1.1      1.1      0.8   100    22.1     3.823    23.4    0.895       26      0.22
    21    10  2009   112    4    17.8    0.80     -9      0     -9      0     45    13.2     7.3      0     0.17      1.2      1.2      0.9   100    21.9     3.850    24.0    0.925       25      0.23
    22    10  2009   113    4    19.7    0.80     -9      0     -9      0     45    13.1     7.2      0     0.16      1.0      1.0      0.7   100    21.7     3.875    24.7    0.956       25      0.24
    23    10  2009   114    4    17.6    0.80     -9      0     -9      0     45    12.8     7.1      0     0.16      1.1      1.1      0.8   100    21.4     3.900    25.3    0.986       25      0.24
    24    10  2009   115    4    17.4    0.80     -9      0     -9      0     45    12.6     6.9      0     0.15      1.1      1.1      0.8   100    21.2     3.923    25.9    1.016       25      0.25
    25    10  2009   116    4    20.2    0.80     -9      0     -9      0     45    12.3     6.8      0     0.15      0.6      0.6      0.5   100    21.0     3.946    26.5    1.047       25      0.26
    26    10  2009   117    4    18.5    0.80     -9      0     -9      0     45    11.9     6.6      0     0.14      0.8      0.8      0.6   100    20.8     3.966    27.2    1.077       25      0.26
    27    10  2009   118    4    20.8    0.80     -9      0     -9      0     45    11.6     6.4      0     0.13      0.7      0.7      0.5   100    20.6     3.986    27.8    1.107       25      0.27
    28    10  2009   119    4    20.3    0.80     -9      0     -9      0     45    11.1     6.1      0     0.12      0.7      0.7      0.5   100    20.5     4.004    28.4    1.137       25      0.28
    29    10  2009   120    4    20.7    0.80     -9      0     -9      0     45    10.6     5.8      0     0.11      0.6      0.6      0.4   100    20.3     4.020    29.0    1.166       25      0.28
    30    10  2009   121    4    18.2    0.80     -9      0     -9      0     45    10.1     5.5      0     0.10      0.6      0.6      0.4   100    20.1     4.034    29.6    1.196       25      0.29
    31    10  2009   122    4    17.2    0.80     -9      0     -9      0     45     9.4     5.2      0     0.09      0.5      0.5      0.4   100    20.0     4.047    30.3    1.225       25      0.30
     1    11  2009   123    4    17.8    0.80     -9      0     -9      0     45     8.7     4.8      0     0.07      0.5      0.5      0.4   100    19.9     4.058    30.9    1.253       25      0.30
     2    11  2009   124    4    18.8    0.80     -9      0     -9      0     45     7.8     4.3      0     0.06      0.3      0.3      0.2   100    19.8     4.066    31.5    1.281       25      0.31
     3    11  2009   125    4    18.8    0.80     -9      0     -9      0     45     6.8     3.8      0     0.05      0.2      0.2      0.1   100    19.8     4.073    32.1    1.309       25      0.31
     4    11  2009   126    4    19.6    0.80     -9      0     -9      0     45     5.7     3.1      0     0.03      0.2      0.2      0.1   100    19.7     4.078    32.8    1.336       25      0.32
     5    11  2009   127    4    19.8    0.80     -9      0     -9      0     45     4.4     2.4      0     0.02      0.1      0.1      0.1   100    19.7     4.081    33.0    1.347       25      0.32
     6    11  2009   128    4    20.4    0.80     -9      0     -9      0     45     3.0     1.6      0     0.01      0.1      0.1      0.0   100    19.7     4.082    33.0    1.347       25      0.32
     7    11  2009   129    4    18.4    0.80     -9      0     -9      0     45     1.3     0.7      0     0.00      0.0      0.0      0.0   100    19.7     4.082    33.0    1.347       25      0.32
     8    11  2009    -9    0    17.4    0.80     -9     -9     -9      0     -9     0.0     0.0      0    -9.00      0.0      0.0      0.0   100    19.7     4.082    33.0    1.347       25      0.32
     9    11  2009    -9    0    18.5    0.80     -9     -9     -9      0     -9     0.0     0.0      0    -9.00      0.0      0.0      0.0   100    19.7     4.082    33.0    1.347       25      0.32
    10    11  2009    -9    0    18.3    0.80     -9     -9     -9      0     -9     0.0     0.0      0    -9.00      0.0      0.0      0.0   100    19.7     4.082    33.0    1.347       25      0.32

Legend

DAP          : Days after planting
Stage        : 0: before/after planting
Stage        : 1: emergence or transplant recovery
Stage        : 2: vegetative stage
Stage        : 3: flowering
Stage        : 4: yield formation and ripening
GD           : Growing degrees
Z            : Effective rooting depth
StExp        : Percent water stress reducing leaf expansion
StSto        : Percent water stress inducing stomatal closure
StSen        : Percent water stress triggering early canopy senescence
StSalt       : Percent salinity stress
StWeed       : Relative cover of weeds
CC           : Green total Canopy Cover of crop and weeds
CCw          : Green crop Canopy Cover in weed infested field
StTr         : Percent temperature stress affecting crop transpiration
Kc(Tr)       : Crop coefficient for transpiration
Trx          : Maximum total transpiration of crop and weeds
Tr           : Total transpiration of crop and weeds
TrW          : Crop transpiration in weed infested field
Tr/Trx       : Relative total transpiration of crop and weeds (100 Tr/Trx)
WP           : Crop water productivity adjusted for CO2, soil fertility and products synthesized
Biomass      : Cumulative crop biomass
HI           : Harvest Index adjusted for failure of pollination, inadequate photosynthesis and water stress
Yield Part   : Crop yield (HI x Biomass)
Brelative    : Relative biomass (Reference: no water, no soil fertility, no soil salinity stress, no weed infestation)
WPet         : ET Water productivity for yield part (kg yield produced per m3 water evapotranspired)
