AquaCrop 6.1 (May 2018) - Output created on (date) : 29/07/2022   at (time) : 17:56:33
Soil Water content in soil profile (WC) and root zone (Wr)

** Run number:  1   -- Water content in soil profile (WCTot layer: 0.00 - 1.20 m) and root zone (Wr with Zx = 0.80 m)
   Day Month  Year   DAP Stage     WCTot   Wr(Zx)      Z       Wr    Wr(SAT)    Wr(FC)   Wr(exp)   Wr(sto)   Wr(sen)   Wr(PWP)
                                     mm       mm       m       mm        mm        mm        mm        mm        mm        mm
     2     7  2009     1    1     285.4    186.8    0.30     66.5     129.2      62.9      59.4      44.9      45.4      37.6
     3     7  2009     2    1     280.9    182.1    0.30     61.0     129.2      62.9      59.4      44.8      45.4      37.6
     4     7  2009     3    1     277.8    178.9    0.30     58.0     129.2      62.9      59.4      44.8      45.4      37.6
     5     7  2009     4    1     288.3    189.5    0.30     68.9     129.2      62.9      59.4      43.7      45.4      37.6
     6     7  2009     5    1     282.8    183.8    0.30     62.1     129.2      62.9      59.4      44.7      45.4      37.6
     7     7  2009     6    1     278.5    179.4    0.30     58.2     129.2      62.9      59.4      44.6      45.4      37.6
     8     7  2009     7    2     275.9    177.0    0.30     56.3     129.2      62.9      57.8      44.4      44.4      37.6
     9     7  2009     8    2     274.0    175.3    0.30     54.8     129.2      62.9      58.3      44.8      44.8      37.6
    10     7  2009     9    2     272.9    174.2    0.30     53.9     129.2      62.9      58.0      44.6      44.6      37.6
    11     7  2009    10    2     273.0    174.4    0.30     54.0     129.2      62.9      58.6      45.0      45.0      37.6
    12     7  2009    11    2     273.5    174.9    0.30     54.6     129.2      62.9      58.3      44.8      44.8      37.6
    13     7  2009    12    2     284.0    185.3    0.30     65.0     129.2      62.9      57.8      44.4      44.4      37.6
    14     7  2009    13    2     284.0    185.2    0.31     66.1     132.0      64.5      59.7      45.9      45.9      38.6
    15     7  2009    14    2     287.3    188.4    0.31     71.0     135.2      66.3      61.3      47.1      47.1      39.7
    16     7  2009    15    2     284.2    185.1    0.32     68.7     138.3      68.0      63.3      48.6      48.6      40.7
    17     7  2009    16    2     280.2    181.2    0.33     66.9     141.3      69.7      64.7      49.7      49.7      41.8
    18     7  2009    17    2     277.7    178.8    0.34     66.7     144.3      71.4      66.0      50.8      50.8      42.8
    19     7  2009    18    2     276.2    177.5    0.34     67.2     147.2      73.1      66.9      51.6      51.6      43.8
    20     7  2009    19    2     275.3    176.6    0.35     68.0     150.1      74.7      68.4      52.8      52.8      44.8
    21     7  2009    20    2     280.1    181.4    0.36     74.4     153.0      76.3      71.2      54.7      54.7      45.8
    22     7  2009    21    2     276.5    177.9    0.36     72.4     155.8      77.8      72.0      55.5      55.5      46.8
    23     7  2009    22    2     274.4    175.7    0.37     71.9     158.5      79.4      73.5      56.7      56.7      47.7
    24     7  2009    23    2     275.2    176.6    0.37     74.2     161.3      80.9      74.7      57.6      57.6      48.7
    25     7  2009    24    2     276.4    177.7    0.38     76.9     164.0      82.4      75.7      58.5      58.5      49.6
    26     7  2009    25    2     273.4    174.7    0.39     75.4     166.7      83.9      77.4      59.7      59.7      50.5
    27     7  2009    26    2     288.0    189.4    0.39     91.6     169.3      85.4      79.0      60.9      60.9      51.4
    28     7  2009    27    2     283.3    184.3    0.40     87.1     171.9      86.9      80.0      61.8      61.8      52.3
    29     7  2009    28    2     283.8    184.7    0.41     89.1     174.5      88.4      81.9      63.1      63.1      53.2
    30     7  2009    29    2     288.3    189.4    0.41     95.6     177.1      89.8      83.7      64.5      64.5      54.1
    31     7  2009    30    2     288.6    189.5    0.42     96.7     179.7      91.2      84.4      65.1      65.1      55.0
     1     8  2009    31    2     282.5    183.3    0.42     91.6     182.2      92.6      85.6      66.1      66.1      55.9
     2     8  2009    32    2     286.7    187.6    0.43     97.8     184.7      94.0      87.4      67.4      67.4      56.7
     3     8  2009    33    2     292.7    193.7    0.44    105.3     187.2      95.4      89.0      68.6      68.6      57.6
     4     8  2009    34    2     285.9    186.5    0.44     98.6     189.7      96.8      89.9      69.4      69.4      58.4
     5     8  2009    35    2     288.5    189.1    0.45    103.1     192.1      98.2      91.4      70.5      70.5      59.3
     6     8  2009    36    2     292.4    193.1    0.45    108.6     194.5      99.6      91.7      70.9      70.9      60.1
     7     8  2009    37    2     292.6    193.1    0.46    109.5     197.0     100.9      93.4      72.1      72.1      61.0
     8     8  2009    38    2     292.1    192.4    0.46    110.0     199.4     102.3      94.6      73.1      73.1      61.8
     9     8  2009    39    2     288.2    188.6    0.47    107.7     201.7     103.6      95.7      74.0      74.0      62.6
    10     8  2009    40    2     281.8    182.4    0.47    103.2     204.1     104.9      96.8      74.9      74.9      63.4
    11     8  2009    41    2     286.6    187.6    0.48    110.3     206.5     106.2      98.8      76.3      76.3      64.2
    12     8  2009    42    2     293.8    194.8    0.49    118.6     208.8     107.6      99.7      77.0      77.0      65.1
    13     8  2009    43    2     295.7    196.2    0.49    120.5     211.1     108.9     101.5      78.4      78.4      65.9
    14     8  2009    44    2     287.3    187.4    0.50    112.7     213.4     110.2     101.4      78.5      78.5      66.7
    15     8  2009    45    2     285.5    185.9    0.50    113.1     215.7     111.4     103.6      80.1      80.1      67.4
    16     8  2009    46    2     278.6    179.5    0.51    108.6     218.0     112.7     105.5      81.4      81.4      68.2
    17     8  2009    47    2     280.8    182.0    0.51    112.6     220.3     114.0     106.0      81.9      81.9      69.0
    18     8  2009    48    2     283.0    184.3    0.52    116.3     222.6     115.3     107.5      83.1      83.1      69.8
    19     8  2009    49    2     285.2    186.5    0.52    119.7     224.8     116.5     108.2      83.7      83.7      70.6
    20     8  2009    50    2     280.3    181.5    0.53    115.7     227.1     117.8     109.2      84.5      84.5      71.4
    21     8  2009    51    2     276.4    177.6    0.53    113.1     229.3     119.0     110.7      85.6      85.6      72.1
    22     8  2009    52    2     287.4    188.6    0.54    125.6     231.5     120.3     112.2      86.7      86.7      72.9
    23     8  2009    53    2     289.2    190.3    0.54    128.1     233.7     121.5     113.0      87.4      87.4      73.6
    24     8  2009    54    2     295.4    196.1    0.55    135.0     235.9     122.7     113.4      87.8      87.8      74.4
    25     8  2009    55    2     305.8    206.0    0.55    145.7     238.1     124.0     114.7      88.8      88.8      75.2
    26     8  2009    56    2     294.5    193.8    0.56    133.8     240.3     125.2     115.5      89.5      89.5      75.9
    27     8  2009    57    2     292.5    192.1    0.56    134.0     242.5     126.4     117.6      90.9      90.9      76.7
    28     8  2009    58    2     300.1    200.3    0.57    143.9     244.6     127.6     118.5      91.7      91.7      77.4
    29     8  2009    59    2     290.6    190.4    0.57    134.7     246.8     128.8     119.2      92.3      92.3      78.1
    30     8  2009    60    2     282.3    182.4    0.58    128.3     248.9     130.0     121.5      93.9      93.9      78.9
    31     8  2009    61    2     289.9    190.6    0.58    138.2     251.0     131.2     122.6      94.8      94.8      79.6
     1     9  2009    62    2     283.2    183.9    0.59    132.6     253.2     132.4     123.2      95.3      95.3      80.4
     2     9  2009    63    2     277.8    178.7    0.59    128.6     255.3     133.6     125.4      96.9      96.9      81.1
     3     9  2009    64    2     286.0    187.1    0.60    138.5     257.4     134.8     125.4      97.0      97.0      81.8
     4     9  2009    65    2     280.5    181.6    0.60    134.1     259.5     135.9     126.7      98.0      98.0      82.5
     5     9  2009    66    2     282.3    183.4    0.61    137.1     261.6     137.1     127.3      98.6      98.6      83.3
     6     9  2009    67    3     296.1    197.3    0.61    152.2     263.7     138.3     127.6      98.9      98.9      84.0
     7     9  2009    68    3     293.6    194.0    0.62    149.4     265.7     139.5     130.1     100.7     100.7      84.7
     8     9  2009    69    3     284.8    184.8    0.62    141.3     267.8     140.6     129.6     100.5     100.5      85.4
     9     9  2009    70    3     292.9    193.5    0.63    151.6     269.9     141.8     130.0     100.9     100.9      86.1
    10     9  2009    71    3     297.6    198.1    0.63    157.3     271.9     142.9     133.2     103.0     103.0      86.8
    11     9  2009    72    3     298.8    198.8    0.64    158.9     274.0     144.1     134.0     103.8     103.8      87.5
    12     9  2009    73    3     288.7    188.4    0.64    149.5     276.0     145.2     134.4     104.2     104.2      88.2
    13     9  2009    74    3     280.8    181.0    0.65    143.6     278.1     146.4     136.6     105.7     105.7      88.9
    14     9  2009    75    3     287.3    188.1    0.65    152.1     280.1     147.5     136.3     105.7     105.7      89.6
    15     9  2009    76    3     280.6    181.6    0.66    146.8     282.1     148.6     139.6     107.9     107.9      90.3
    16     9  2009    77    3     290.7    191.7    0.66    158.0     284.1     149.7     140.4     108.6     108.6      91.0
    17     9  2009    78    3     284.6    185.4    0.67    152.7     286.1     150.9     139.5     108.1     108.1      91.7
    18     9  2009    79    3     288.7    189.5    0.67    158.0     288.1     152.0     141.4     109.5     109.5      92.4
    19     9  2009    80    4     282.6    183.3    0.67    153.0     290.1     153.1     141.6     109.8     109.8      93.1
    20     9  2009    81    4     277.5    178.4    0.68    149.2     292.1     154.2     144.2     111.6     111.6      93.8
    21     9  2009    82    4     274.3    175.4    0.68    147.5     294.1     155.3     144.5     111.9     111.9      94.5
    22     9  2009    83    4     276.7    178.0    0.69    151.2     296.1     156.5     144.2     111.9     111.9      95.2
    23     9  2009    84    4     272.1    173.4    0.69    147.7     298.1     157.6     147.3     114.0     114.0      95.8
    24     9  2009    85    4     269.7    171.0    0.70    146.4     300.0     158.7     148.3     114.8     114.8      96.5
    25     9  2009    86    4     284.7    186.1    0.70    162.6     302.0     159.8     147.7     114.6     114.6      97.2
    26     9  2009    87    4     279.6    180.9    0.71    158.4     304.0     160.9     150.6     116.5     116.5      97.9
    27     9  2009    88    4     275.4    176.6    0.71    155.2     305.9     162.0     153.6     118.5     118.5      98.5
    28     9  2009    89    4     272.4    173.7    0.72    153.5     307.9     163.0     154.6     119.3     119.3      99.2
    29     9  2009    90    4     270.3    171.7    0.72    152.6     309.8     164.1     154.2     119.2     119.2      99.9
    30     9  2009    91    4     268.2    169.6    0.73    151.5     311.7     165.2     157.6     121.5     121.5     100.6
     1    10  2009    92    4     266.7    168.0    0.73    151.1     313.7     166.3     156.0     120.6     120.6     101.2
     2    10  2009    93    4     265.3    166.7    0.73    150.8     315.6     167.4     156.2     121.0     121.0     101.9
     3    10  2009    94    4     263.9    165.2    0.74    150.4     317.5     168.5     158.5     122.5     122.5     102.5
     4    10  2009    95    4     262.1    163.4    0.74    149.7     319.4     169.5     163.2     125.6     125.6     103.2
     5    10  2009    96    4     260.6    162.0    0.75    149.3     321.3     170.6     162.0     125.0     125.0     103.9
     6    10  2009    97    4     259.4    160.8    0.75    149.2     323.2     171.7     161.3     124.7     124.7     104.5
     7    10  2009    98    4     257.6    159.0    0.76    148.5     325.1     172.7     167.9     128.9     128.9     105.2
     8    10  2009    99    4     256.5    157.8    0.76    148.4     327.0     173.8     163.0     126.1     126.1     105.8
     9    10  2009   100    4     255.2    156.6    0.77    148.2     328.9     174.9     165.3     127.7     127.7     106.5
    10    10  2009   101    4     254.0    155.4    0.77    148.0     330.8     175.9     166.3     128.5     128.5     107.1
    11    10  2009   102    4     252.7    154.1    0.77    147.8     332.7     177.0     167.8     129.6     129.6     107.8
    12    10  2009   103    4     251.4    152.7    0.78    147.5     334.6     178.0     170.1     131.1     131.1     108.4
    13    10  2009   104    4     250.2    151.6    0.78    147.4     336.5     179.1     168.7     130.5     130.5     109.1
    14    10  2009   105    4     249.0    150.4    0.79    147.3     338.3     180.1     171.3     132.2     132.2     109.7
    15    10  2009   106    4     247.8    149.1    0.79    147.0     340.2     181.2     172.9     133.3     133.3     110.4
    16    10  2009   107    4     246.4    147.8    0.80    146.7     342.1     182.2     175.5     135.1     135.1     111.0
    17    10  2009   108    4     247.3    148.7    0.80    148.7     343.9     183.2     171.1     132.5     132.5     111.7
    18    10  2009   109    4     247.9    149.3    0.80    149.3     343.9     183.2     171.9     133.0     133.0     111.7
    19    10  2009   110    4     245.3    146.7    0.80    146.7     343.9     183.2     174.3     134.5     134.5     111.7
    20    10  2009   111    4     243.9    145.3    0.80    145.3     343.9     183.2     177.0     136.2     136.2     111.7
    21    10  2009   112    4     242.4    143.8    0.80    143.8     343.9     183.2     178.9     137.3     137.3     111.7
    22    10  2009   113    4     241.2    142.5    0.80    142.5     343.9     183.2     175.9     135.5     135.5     111.7
    23    10  2009   114    4     239.8    141.2    0.80    141.2     343.9     183.2     178.3     137.0     137.0     111.7
    24    10  2009   115    4     238.5    139.8    0.80    139.8     343.9     183.2     178.6     137.2     137.2     111.7
    25    10  2009   116    4     237.7    139.0    0.80    139.0     343.9     183.2     171.6     132.9     132.9     111.7
    26    10  2009   117    4     236.7    138.0    0.80    138.0     343.9     183.2     175.9     135.5     135.5     111.7
    27    10  2009   118    4     235.8    137.2    0.80    137.2     343.9     183.2     173.2     133.9     133.9     111.7
    28    10  2009   119    4     235.0    136.3    0.80    136.3     343.9     183.2     175.1     135.0     135.0     111.7
    29    10  2009   120    4     234.2    135.5    0.80    135.5     343.9     183.2     174.8     134.8     134.8     111.7
    30    10  2009   121    4     233.4    134.8    0.80    134.8     343.9     183.2     175.7     135.3     135.3     111.7
    31    10  2009   122    4     232.7    134.1    0.80    134.1     343.9     183.2     176.7     136.0     136.0     111.7
     1    11  2009   123    4     232.1    133.4    0.80    133.4     343.9     183.2     177.5     136.5     136.5     111.7
     2    11  2009   124    4     231.6    133.0    0.80    133.0     343.9     183.2     174.3     134.5     134.5     111.7
     3    11  2009   125    4     231.4    132.7    0.80    132.7     343.9     183.2     170.0     131.9     131.9     111.7
     4    11  2009   126    4     231.1    132.4    0.80    132.4     343.9     183.2     174.6     134.7     134.7     111.7
     5    11  2009   127    4     230.8    132.2    0.80    132.2     343.9     183.2     175.9     135.5     135.5     111.7
     6    11  2009   128    4     230.6    132.0    0.80    132.0     343.9     183.2     175.9     135.5     135.5     111.7
     7    11  2009   129    4     230.4    131.8    0.80    131.8     343.9     183.2     176.7     136.0     136.0     111.7
     8    11  2009    -9    0     230.3    131.6    0.80    131.6     343.9     183.2     177.3     136.3     136.3     111.7
     9    11  2009    -9    0     230.1    131.5    0.80    131.5     343.9     183.2     177.3     135.8     136.3     111.7
    10    11  2009    -9    0     230.0    131.3    0.80    131.3     343.9     183.2     177.3     135.7     136.3     111.7

Legend

DAP          : Days after planting
Stage        : 0: before/after planting
Stage        : 1: emergence or transplant recovery
Stage        : 2: vegetative stage
Stage        : 3: flowering
Stage        : 4: yield formation and ripening
WCTot        : Water content in total soil profile (layer: 0.00 - 1.20 m)
Wr(Zx)       : Water content in maximum effective root zone (Zx = 0.80 m)
Z            : Effective rooting depth
Wr           : Water content in effective root zone
Wr(Sat)      : Water content in effective root zone if saturated
Wr(FC)       : Water content in effective root zone at field capacity
Wr(exp)      : Water content in effective root zone at upper threshold for leaf expansion
Wr(sto)      : Water content in effective root zone at upper threshold for stomatal closure
Wr(sen)      : Water content in effective root zone at upper threshold for early canopy senescence
Wr(PWP)      : Water content in effective root zone at permanent wilting point
