AquaCrop 6.1 (May 2018) - Output created on (date) : 12/04/2022   at (time) : 17:58:56
Climate input data

** Run number:  1
   Day Month  Year   DAP Stage     Rain       ETo      Tmin      Tavg      Tmax      CO2
                                    mm        mm        °C        °C        °C       ppm
    15     4  2017     1    1       0.0       6.0       8.3      16.7      25.1    404.00
    16     4  2017     2    1       0.0       5.6      10.9      18.4      25.8    404.00
    17     4  2017     3    1       0.0       6.1      12.5      19.6      26.8    404.00
    18     4  2017     4    1       0.1       5.2      11.6      18.9      26.1    404.00
    19     4  2017     5    1       0.0       6.2      10.9      19.1      27.4    404.00
    20     4  2017     6    1       0.0       6.6      10.9      19.1      27.3    404.00
    21     4  2017     7    1       0.0       7.2      11.0      19.9      28.7    404.00
    22     4  2017     8    1       0.0       7.2      11.7      20.1      28.5    404.00
    23     4  2017     9    2       0.0       7.0      13.3      21.2      29.1    404.00
    24     4  2017    10    2       0.0       5.9      14.7      21.8      28.9    404.00
    25     4  2017    11    2       0.0       6.3      14.3      21.3      28.2    404.00
    26     4  2017    12    2       0.0       6.5      13.6      20.9      28.3    404.00
    27     4  2017    13    2       0.0       6.6      13.0      20.8      28.5    404.00
    28     4  2017    14    2       0.0       5.7      14.8      22.3      29.7    404.00
    29     4  2017    15    2       1.9       4.0      15.6      21.4      27.3    404.00
    30     4  2017    16    2       6.5       3.3      14.1      19.1      24.1    404.00
     1     5  2017    17    2       3.7       5.0      12.3      19.6      26.9    404.00
     2     5  2017    18    2       0.3       5.7      12.0      19.6      27.1    404.00
     3     5  2017    19    2       0.0       7.6      12.1      21.5      30.9    404.00
     4     5  2017    20    2       0.0       7.6      12.8      21.9      30.9    404.00
     5     5  2017    21    2       0.0       6.2      12.0      19.9      27.9    404.00
     6     5  2017    22    2       0.1       5.7      12.8      19.9      27.0    404.00
     7     5  2017    23    2       1.7       3.7      13.7      19.3      24.8    404.00
     8     5  2017    24    2       2.4       4.3      14.4      20.6      26.9    404.00
     9     5  2017    25    2       4.1       3.7      14.7      20.7      26.7    404.00
    10     5  2017    26    2       3.2       2.4      15.5      19.4      23.2    404.00
    11     5  2017    27    2       2.9       3.6      16.0      20.5      25.0    404.00
    12     5  2017    28    2      10.7       3.8      14.3      20.1      26.0    404.00
    13     5  2017    29    2       5.4       3.3      14.7      19.6      24.6    404.00
    14     5  2017    30    2       5.6       2.6      14.8      18.9      23.0    404.00
    15     5  2017    31    2       8.3       1.9      13.7      18.4      23.0    404.00
    16     5  2017    32    2      11.0       1.8      13.7      18.0      22.4    404.00
    17     5  2017    33    2       0.7       1.4      14.1      17.6      21.1    404.00
    18     5  2017    34    2       2.3       3.9      14.0      19.4      24.7    404.00
    19     5  2017    35    2       0.1       6.0      12.1      19.8      27.4    404.00
    20     5  2017    36    2       0.1       6.4      13.2      21.3      29.4    404.00
    21     5  2017    37    2       2.4       4.4      14.5      21.1      27.7    404.00
    22     5  2017    38    2       2.9       3.3      14.1      19.7      25.3    404.00
    23     5  2017    39    2       1.1       3.7      14.2      19.9      25.7    404.00
    24     5  2017    40    2       2.3       5.5      12.6      20.3      27.9    404.00
    25     5  2017    41    2       0.0       7.9      11.2      20.9      30.7    404.00
    26     5  2017    42    2       0.0       7.2      11.6      20.9      30.2    404.00
    27     5  2017    43    2       0.4       5.0      13.5      20.4      27.2    404.00
    28     5  2017    44    2       1.3       3.7      13.1      19.3      25.5    404.00
    29     5  2017    45    2       3.0       4.1      12.3      18.6      25.0    404.00
    30     5  2017    46    2       0.8       5.4      12.2      19.6      27.0    404.00
    31     5  2017    47    2       2.8       4.4      13.3      19.4      25.5    404.00
     1     6  2017    48    2       4.5       4.3      13.1      18.9      24.7    404.00
     2     6  2017    49    2       1.6       3.5      12.3      18.2      24.1    404.00
     3     6  2017    50    2       1.0       3.9      13.4      19.2      25.0    404.00
     4     6  2017    51    2       2.6       4.1      14.8      20.3      25.8    404.00
     5     6  2017    52    2       3.2       3.9      14.6      20.5      26.4    404.00
     6     6  2017    53    2       4.1       3.6      14.9      20.1      25.3    404.00
     7     6  2017    54    2       3.5       4.2      15.0      21.0      27.0    404.00
     8     6  2017    55    2       1.5       5.5      15.0      21.9      28.8    404.00
     9     6  2017    56    2       0.8       5.1      15.7      22.0      28.4    404.00
    10     6  2017    57    2       0.6       4.8      16.2      22.6      29.0    404.00
    11     6  2017    58    2       0.7       5.3      15.0      22.3      29.6    404.00
    12     6  2017    59    2       0.5       6.2      16.2      23.5      30.9    404.00
    13     6  2017    60    2       1.4       5.7      16.7      23.4      30.2    404.00
    14     6  2017    61    2       1.7       5.3      17.2      24.2      31.2    404.00
    15     6  2017    62    2       2.7       3.7      16.9      22.9      29.0    404.00
    16     6  2017    63    2       4.5       3.2      16.1      21.6      27.0    404.00
    17     6  2017    64    2       4.0       3.8      15.7      21.9      28.0    404.00
    18     6  2017    65    2       0.7       4.9      16.3      22.6      29.0    404.00
    19     6  2017    66    2      13.0       3.7      15.8      21.8      27.8    404.00
    20     6  2017    67    2       5.5       3.4      15.6      20.9      26.3    404.00
    21     6  2017    68    2       8.9       2.4      16.0      19.9      23.8    404.00
    22     6  2017    69    2       1.3       5.4      15.3      22.1      28.8    404.00
    23     6  2017    70    2       1.2       4.9      17.4      22.9      28.4    404.00
    24     6  2017    71    2       2.0       4.2      17.3      23.1      28.9    404.00
    25     6  2017    72    2      13.4       2.4      16.1      20.6      25.0    404.00
    26     6  2017    73    2      26.3       1.8      15.9      19.9      23.9    404.00
    27     6  2017    74    3      45.7       2.2      15.4      20.7      26.0    404.00
    28     6  2017    75    3      31.7       1.0      16.3      19.3      22.2    404.00
    29     6  2017    76    3      74.9       2.1      16.0      20.4      24.7    404.00
    30     6  2017    77    3      66.6       1.3      16.5      19.4      22.2    404.00
     1     7  2017    78    3      48.1       1.6      13.3      17.6      22.0    404.00
     2     7  2017    79    3      15.8       1.6      12.9      17.3      21.7    404.00
     3     7  2017    80    3      48.5       1.6      14.2      17.8      21.4    404.00
     4     7  2017    81    3      16.0       1.1      14.3      18.6      22.9    404.00
     5     7  2017    82    3      12.7       1.8      16.1      19.7      23.3    404.00
     6     7  2017    83    3      19.2       0.9      15.7      18.4      21.2    404.00
     7     7  2017    84    3      16.8       1.0      15.1      18.3      21.4    404.00
     8     7  2017    85    3      29.2       1.6      15.3      18.8      22.3    404.00
     9     7  2017    86    3      15.9       1.3      16.3      19.0      21.7    404.00
    10     7  2017    87    3      37.5       0.8      16.0      18.6      21.2    404.00
    11     7  2017    88    3      22.0       1.0      16.0      18.9      21.8    404.00
    12     7  2017    89    3      17.5       0.7      16.3      19.0      21.7    404.00
    13     7  2017    90    3       2.1       0.7      16.2      18.9      21.5    404.00
    14     7  2017    91    3      20.8       0.9      15.7      18.7      21.7    404.00
    15     7  2017    92    3       5.2       2.3      15.6      19.6      23.6    404.00
    16     7  2017    93    3       3.6       2.0      15.5      18.6      21.6    404.00
    17     7  2017    94    3       2.1       2.7      15.5      19.5      23.5    404.00
    18     7  2017    95    3       0.5       3.2      16.7      20.8      24.8    404.00
    19     7  2017    96    3       6.0       1.3      16.7      19.4      22.1    404.00
    20     7  2017    97    4       0.2       1.6      16.9      19.9      23.0    404.00
    21     7  2017    98    4       6.8       1.5      16.6      19.7      22.8    404.00
    22     7  2017    99    4      12.6       1.8      15.5      18.9      22.4    404.00
    23     7  2017   100    4      25.5       0.8      14.8      17.6      20.4    404.00
    24     7  2017   101    4       3.1       2.0      14.8      19.2      23.6    404.00
    25     7  2017   102    4      14.0       0.9      15.7      18.5      21.4    404.00
    26     7  2017   103    4      17.1       1.4      16.0      19.4      22.9    404.00
    27     7  2017   104    4      17.2       2.2      16.7      21.3      25.9    404.00
    28     7  2017   105    4       4.6       3.4      17.1      21.4      25.6    404.00
    29     7  2017   106    4       8.4       2.8      16.6      22.1      27.7    404.00
    30     7  2017   107    4      10.3       1.6      16.5      20.6      24.7    404.00
    31     7  2017   108    4      10.3       1.7      15.8      19.1      22.3    404.00
     1     8  2017   109    4      41.5       1.4      14.8      18.3      21.7    404.00
     2     8  2017   110    4      15.2       2.8      15.1      19.7      24.3    404.00
     3     8  2017   111    4      22.3       2.0      15.4      19.6      23.9    404.00
     4     8  2017   112    4      32.5       1.2      15.4      18.6      21.7    404.00
     5     8  2017   113    4      47.6       1.2      16.1      18.9      21.7    404.00
     6     8  2017   114    4      10.9       1.2      15.9      19.1      22.2    404.00
     7     8  2017   115    4      17.1       2.9      15.8      20.3      24.7    404.00
     8     8  2017   116    4       6.2       1.5      16.2      20.3      24.3    404.00
     9     8  2017   117    4       9.8       2.6      16.7      20.3      23.8    404.00
    10     8  2017   118    4       6.1       0.8      16.4      19.4      22.4    404.00
    11     8  2017   119    4       7.6       3.3      15.2      20.2      25.2    404.00
    12     8  2017   120    4      19.4       1.6      14.7      18.9      23.2    404.00
    13     8  2017   121    4      24.7       1.2      14.3      18.4      22.5    404.00
    14     8  2017   122    4      20.5       0.7      16.0      18.7      21.4    404.00
    15     8  2017   123    4       6.4       2.4      16.0      19.7      23.4    404.00
    16     8  2017   124    4       1.4       1.3      16.2      19.3      22.3    404.00
    17     8  2017   125    4      10.0       1.9      16.4      20.5      24.7    404.00
    18     8  2017   126    4       0.8       1.8      16.6      20.2      23.8    404.00
    19     8  2017   127    4       5.6       3.2      16.8      21.3      25.8    404.00
    20     8  2017   128    4       2.2       2.2      14.8      19.8      24.7    404.00
    21     8  2017   129    4       0.6       2.5      14.5      18.5      22.5    404.00
    22     8  2017   130    4       1.6       2.3      14.4      19.2      24.0    404.00
    23     8  2017   131    4       5.4       1.5      14.6      18.0      21.4    404.00

Legend

DAP          : Days after planting
Stage        : 0: before/after planting
Stage        : 1: emergence or transplant recovery
Stage        : 2: vegetative stage
Stage        : 3: flowering
Stage        : 4: yield formation and ripening
Rain         : Rainfall
ETo          : Reference evapotranspiration
Tmin         : Minimum air temperature
Tavg         : Average air temperature
Tmax         : Maximum air temperature
CO2          : Atmospheric CO2 concentration
