AquaCrop 6.1 (May 2018) - Output created on (date) : 12/04/2022   at (time) : 17:58:56
Soil Water Content (WC) at various depths (at center of compartments)

** Run number:  1
                 at depth (m):      0.05        0.15        0.25        0.35        0.45        0.55        0.65        0.75        0.85        0.95        1.05        1.15
   Day Month  Year   DAP Stage   WC1(vol%)   WC2(vol%)   WC3(vol%)   WC4(vol%)   WC5(vol%)   WC6(vol%)   WC7(vol%)   WC8(vol%)   WC9(vol%)  WC10(vol%)  WC11(vol%)  WC12(vol%)
    15     4  2017     1    1       26.1        31.0        31.0        31.0        31.0        31.0        31.0        31.0        31.0        31.0        31.0        31.0
    16     4  2017     2    1       23.2        31.0        31.0        31.0        31.0        31.0        31.0        31.0        31.0        31.0        31.0        31.0
    17     4  2017     3    1       20.9        31.0        31.0        31.0        31.0        31.0        31.0        31.0        31.0        31.0        31.0        31.0
    18     4  2017     4    1       17.3        31.0        31.0        31.0        31.0        31.0        31.0        31.0        31.0        31.0        31.0        31.0
    19     4  2017     5    1       14.6        31.0        31.0        31.0        31.0        31.0        31.0        31.0        31.0        31.0        31.0        31.0
    20     4  2017     6    1       12.7        31.0        31.0        31.0        31.0        31.0        31.0        31.0        31.0        31.0        31.0        31.0
    21     4  2017     7    1       11.1        31.0        31.0        31.0        31.0        31.0        31.0        31.0        31.0        31.0        31.0        31.0
    22     4  2017     8    1       29.0        29.0        29.0        31.0        31.0        31.0        31.0        31.0        31.0        31.0        31.0        31.0
    23     4  2017     9    2       28.9        28.9        28.9        31.0        31.0        31.0        31.0        31.0        31.0        31.0        31.0        31.0
    24     4  2017    10    2       28.9        28.9        28.9        30.8        31.0        31.0        31.0        31.0        31.0        31.0        31.0        31.0
    25     4  2017    11    2       28.9        28.9        28.9        30.3        31.0        31.0        31.0        31.0        31.0        31.0        31.0        31.0
    26     4  2017    12    2       28.9        28.9        28.9        29.8        31.0        31.0        31.0        31.0        31.0        31.0        31.0        31.0
    27     4  2017    13    2       28.9        28.9        28.9        29.3        31.0        31.0        31.0        31.0        31.0        31.0        31.0        31.0
    28     4  2017    14    2       28.8        28.8        28.8        29.0        31.0        31.0        31.0        31.0        31.0        31.0        31.0        31.0
    29     4  2017    15    2       28.7        28.7        28.7        28.8        31.0        31.0        31.0        31.0        31.0        31.0        31.0        31.0
    30     4  2017    16    2       31.6        28.7        28.7        28.8        31.0        31.0        31.0        31.0        31.0        31.0        31.0        31.0
     1     5  2017    17    2       29.5        29.1        28.7        28.8        31.0        31.0        31.0        31.0        31.0        31.0        31.0        31.0
     2     5  2017    18    2       28.8        28.8        28.8        28.8        30.9        31.0        31.0        31.0        31.0        31.0        31.0        31.0
     3     5  2017    19    2       29.0        29.0        29.0        29.0        30.5        31.0        31.0        31.0        31.0        31.0        31.0        31.0
     4     5  2017    20    2       29.0        29.0        29.0        29.0        30.1        31.0        31.0        31.0        31.0        31.0        31.0        31.0
     5     5  2017    21    2       28.9        28.9        28.9        28.9        29.6        31.0        31.0        31.0        31.0        31.0        31.0        31.0
     6     5  2017    22    2       28.8        28.8        28.8        28.8        29.3        31.0        31.0        31.0        31.0        31.0        31.0        31.0
     7     5  2017    23    2       28.7        28.7        28.7        28.7        28.9        31.0        31.0        31.0        31.0        31.0        31.0        31.0
     8     5  2017    24    2       28.7        28.7        28.7        28.7        28.8        31.0        31.0        31.0        31.0        31.0        31.0        31.0
     9     5  2017    25    2       28.8        28.7        28.7        28.7        28.8        31.0        31.0        31.0        31.0        31.0        31.0        31.0
    10     5  2017    26    2       29.4        28.7        28.7        28.7        28.8        31.0        31.0        31.0        31.0        31.0        31.0        31.0
    11     5  2017    27    2       28.7        28.7        28.7        28.7        28.7        31.0        31.0        31.0        31.0        31.0        31.0        31.0
    12     5  2017    28    2       35.3        28.7        28.7        28.7        28.7        31.0        31.0        31.0        31.0        31.0        31.0        31.0
    13     5  2017    29    2       34.0        31.2        29.2        28.7        28.7        31.0        31.0        31.0        31.0        31.0        31.0        31.0
    14     5  2017    30    2       34.7        31.7        30.9        28.7        28.7        31.0        31.0        31.0        31.0        31.0        31.0        31.0
    15     5  2017    31    2       38.3        31.9        31.5        30.5        28.7        31.0        31.0        31.0        31.0        31.0        31.0        31.0
    16     5  2017    32    2       42.1        32.7        31.9        31.6        31.2        31.0        31.0        31.0        31.0        31.0        31.0        31.0
    17     5  2017    33    2       32.4        33.6        32.4        32.0        31.9        31.6        31.5        31.4        31.3        31.2        31.2        31.2
    18     5  2017    34    2       29.6        31.7        31.6        31.5        31.4        31.4        31.3        31.3        31.3        31.2        31.2        31.2
    19     5  2017    35    2       24.5        31.2        31.2        31.1        31.1        31.1        31.1        31.1        31.1        31.1        31.1        31.1
    20     5  2017    36    2       19.1        31.1        31.0        31.0        31.0        31.0        31.0        31.0        31.0        31.0        31.0        31.0
    21     5  2017    37    2       28.7        28.7        28.7        28.7        28.7        29.2        31.0        31.0        31.0        31.0        31.0        31.0
    22     5  2017    38    2       28.2        28.7        28.7        28.7        28.7        29.2        31.0        31.0        31.0        31.0        31.0        31.0
    23     5  2017    39    2       28.7        28.7        28.7        28.7        28.7        28.7        31.0        31.0        31.0        31.0        31.0        31.0
    24     5  2017    40    2       28.8        28.8        28.8        28.8        28.8        28.8        30.9        31.0        31.0        31.0        31.0        31.0
    25     5  2017    41    2       29.0        29.0        29.0        29.0        29.0        29.0        30.6        31.0        31.0        31.0        31.0        31.0
    26     5  2017    42    2       29.0        29.0        29.0        29.0        29.0        29.0        30.2        31.0        31.0        31.0        31.0        31.0
    27     5  2017    43    2       28.8        28.8        28.8        28.8        28.8        28.8        29.8        31.0        31.0        31.0        31.0        31.0
    28     5  2017    44    2       28.7        28.7        28.7        28.7        28.7        28.7        29.3        31.0        31.0        31.0        31.0        31.0
    29     5  2017    45    2       28.7        28.7        28.7        28.7        28.7        28.7        29.1        31.0        31.0        31.0        31.0        31.0
    30     5  2017    46    2       28.8        28.8        28.8        28.8        28.8        28.8        28.9        31.0        31.0        31.0        31.0        31.0
    31     5  2017    47    2       28.7        28.7        28.7        28.7        28.7        28.7        28.8        31.0        31.0        31.0        31.0        31.0
     1     6  2017    48    2       29.9        28.0        28.7        28.7        28.7        28.7        28.8        31.0        31.0        31.0        31.0        31.0
     2     6  2017    49    2       28.7        28.7        28.7        28.7        28.7        28.7        28.7        31.0        31.0        31.0        31.0        31.0
     3     6  2017    50    2       28.7        28.7        28.7        28.7        28.7        28.7        28.7        31.0        31.0        31.0        31.0        31.0
     4     6  2017    51    2       28.7        28.7        28.7        28.7        28.7        28.7        28.7        31.0        31.0        31.0        31.0        31.0
     5     6  2017    52    2       28.7        28.7        28.7        28.7        28.7        28.7        28.7        31.0        31.0        31.0        31.0        31.0
     6     6  2017    53    2       30.2        27.8        28.7        28.7        28.7        28.7        28.7        31.0        31.0        31.0        31.0        31.0
     7     6  2017    54    2       28.7        28.7        28.7        28.7        28.7        28.7        28.7        30.6        31.0        31.0        31.0        31.0
     8     6  2017    55    2       28.8        28.8        28.8        28.8        28.8        28.8        28.8        30.2        31.0        31.0        31.0        31.0
     9     6  2017    56    2       28.8        28.8        28.8        28.8        28.8        28.8        28.8        29.7        31.0        31.0        31.0        31.0
    10     6  2017    57    2       28.8        28.8        28.8        28.8        28.8        28.8        28.8        29.3        31.0        31.0        31.0        31.0
    11     6  2017    58    2       28.8        28.8        28.8        28.8        28.8        28.8        28.8        29.0        31.0        31.0        31.0        31.0
    12     6  2017    59    2       28.9        28.9        28.9        28.9        28.9        28.9        28.9        28.9        31.0        31.0        31.0        31.0
    13     6  2017    60    2       28.8        28.8        28.8        28.8        28.8        28.8        28.8        28.9        31.0        31.0        31.0        31.0
    14     6  2017    61    2       28.8        28.8        28.8        28.8        28.8        28.8        28.8        28.8        31.0        31.0        31.0        31.0
    15     6  2017    62    2       28.7        28.7        28.7        28.7        28.7        28.7        28.7        28.7        31.0        31.0        31.0        31.0
    16     6  2017    63    2       31.0        27.6        28.7        28.7        28.7        28.7        28.7        28.7        31.0        31.0        31.0        31.0
    17     6  2017    64    2       32.8        26.1        28.6        28.7        28.7        28.7        28.7        28.7        31.0        31.0        31.0        31.0
    18     6  2017    65    2       28.8        28.8        28.8        28.8        28.8        28.8        28.8        28.8        30.6        31.0        31.0        31.0
    19     6  2017    66    2       39.6        27.3        28.7        28.8        28.8        28.8        28.8        28.8        30.6        31.0        31.0        31.0
    20     6  2017    67    2       36.4        30.5        30.8        28.8        28.8        28.8        28.8        28.8        30.6        31.0        31.0        31.0
    21     6  2017    68    2       39.4        31.6        31.5        30.5        28.8        28.8        28.8        28.8        30.6        31.0        31.0        31.0
    22     6  2017    69    2       30.7        31.3        31.3        31.6        31.6        29.8        28.8        28.8        30.6        31.0        31.0        31.0
    23     6  2017    70    2       29.6        29.6        29.9        31.2        31.2        31.0        28.9        28.8        30.6        31.0        31.0        31.0
    24     6  2017    71    2       29.3        28.1        29.3        31.1        31.1        31.0        29.1        28.8        30.6        31.0        31.0        31.0
    25     6  2017    72    2       40.8        27.7        29.3        31.0        31.0        31.0        29.2        28.8        30.6        31.0        31.0        31.0
    26     6  2017    73    2       44.9        45.3        31.3        31.1        31.1        31.1        29.8        28.8        30.6        31.0        31.0        31.0
    27     6  2017    74    3       45.5        45.3        45.1        44.2        32.5        32.1        31.9        31.7        31.4        31.4        31.3        31.3
    28     6  2017    75    3       45.8        46.0        42.0        34.5        34.4        33.8        33.3        33.0        32.7        32.5        32.3        32.2
    29     6  2017    76    3       45.5        46.0        46.0        44.5        45.9        46.0        36.2        32.7        32.5        32.4        32.3        32.2
    30     6  2017    77    3       45.7        46.0        46.0        45.3        45.8        43.6        34.5        34.2        33.8        33.5        33.3        33.1
     1     7  2017    78    3       45.7        46.0        46.0        46.0        33.6        34.5        34.5        34.4        34.0        33.7        33.5        33.3
     2     7  2017    79    3       45.7        36.1        34.6        34.6        34.6        34.0        33.7        33.6        33.3        33.1        32.9        32.8
     3     7  2017    80    3       45.7        45.0        46.0        45.6        32.5        32.4        32.3        32.2        32.1        32.0        32.0        31.9
     4     7  2017    81    3       45.8        36.5        34.6        34.5        34.5        33.9        33.6        33.3        32.9        32.7        32.5        32.4
     5     7  2017    82    3       45.6        33.2        33.3        32.8        32.8        32.4        32.4        32.2        32.1        32.1        32.0        31.9
     6     7  2017    83    3       45.8        40.8        32.9        32.4        32.1        31.9        31.8        31.8        31.7        31.7        31.6        31.6
     7     7  2017    84    3       45.8        37.7        34.0        33.2        32.9        32.3        32.1        31.9        31.8        31.7        31.6        31.6
     8     7  2017    85    3       45.7        44.9        39.6        32.8        32.5        32.2        32.0        31.9        31.8        31.7        31.6        31.6
     9     7  2017    86    3       45.7        36.2        34.5        34.0        33.6        33.2        32.7        32.5        32.2        32.1        32.0        31.9
    10     7  2017    87    3       45.8        45.5        46.0        33.7        32.5        32.4        32.2        32.1        32.0        31.9        31.8        31.7
    11     7  2017    88    3       45.8        44.3        34.6        34.6        33.8        33.3        32.9        32.6        32.4        32.2        32.1        32.0
    12     7  2017    89    3       45.9        38.8        34.4        33.5        33.0        32.9        32.6        32.4        32.3        32.1        32.0        31.9
    13     7  2017    90    3       33.9        34.6        33.9        33.6        32.7        32.5        32.2        32.1        32.0        31.9        31.8        31.8
    14     7  2017    91    3       45.2        38.7        31.9        31.9        31.8        31.7        31.7        31.6        31.6        31.5        31.5        31.5
    15     7  2017    92    3       36.2        34.2        33.6        33.2        32.5        32.1        31.9        31.8        31.6        31.6        31.5        31.5
    16     7  2017    93    3       34.3        32.5        32.1        31.9        31.8        31.7        31.6        31.6        31.5        31.5        31.4        31.4
    17     7  2017    94    3       32.0        31.5        31.6        31.5        31.4        31.4        31.3        31.3        31.3        31.3        31.2        31.2
    18     7  2017    95    3       29.7        30.4        31.2        31.2        31.2        31.2        31.1        31.1        31.1        31.1        31.1        31.1
    19     7  2017    96    3       34.6        30.4        31.1        31.1        31.0        31.0        31.0        31.0        31.0        31.0        31.0        31.0
    20     7  2017    97    4       30.6        31.6        31.3        31.3        31.1        31.1        31.1        31.1        31.1        31.0        31.0        31.0
    21     7  2017    98    4       36.2        31.2        31.1        31.1        31.1        31.1        31.1        31.1        31.0        31.0        31.0        31.0
    22     7  2017    99    4       43.6        32.1        31.6        31.3        31.2        31.2        31.1        31.1        31.1        31.1        31.1        31.1
    23     7  2017   100    4       45.4        46.0        32.9        32.3        31.8        31.6        31.4        31.4        31.3        31.3        31.2        31.2
    24     7  2017   101    4       33.8        34.6        34.5        34.2        33.2        32.7        32.3        32.1        31.9        31.8        31.7        31.6
    25     7  2017   102    4       45.2        32.0        32.0        31.9        31.9        31.8        31.8        31.7        31.6        31.6        31.5        31.5
    26     7  2017   103    4       45.0        38.6        32.7        32.3        32.0        31.7        31.6        31.5        31.5        31.4        31.4        31.4
    27     7  2017   104    4       45.4        37.6        33.6        32.9        32.7        32.2        32.0        31.8        31.7        31.6        31.5        31.5
    28     7  2017   105    4       35.1        34.3        33.5        33.5        32.5        32.3        32.1        31.9        31.8        31.7        31.6        31.6
    29     7  2017   106    4       38.6        32.2        32.0        31.9        31.8        31.7        31.6        31.6        31.5        31.5        31.4        31.4
    30     7  2017   107    4       42.3        32.8        32.0        31.7        31.5        31.4        31.4        31.3        31.3        31.3        31.3        31.3
    31     7  2017   108    4       43.2        33.6        32.5        31.9        31.7        31.5        31.4        31.4        31.3        31.3        31.3        31.2
     1     8  2017   109    4       45.6        45.6        46.0        36.3        31.8        31.7        31.6        31.5        31.4        31.4        31.3        31.3
     2     8  2017   110    4       45.2        35.4        34.6        34.6        34.0        33.9        33.1        32.9        32.5        32.3        32.2        32.0
     3     8  2017   111    4       45.4        44.7        33.1        32.7        32.4        32.3        32.2        32.1        32.0        31.9        31.8        31.8
     4     8  2017   112    4       45.6        45.8        43.6        33.4        32.8        32.4        32.2        32.0        31.9        31.8        31.8        31.7
     5     8  2017   113    4       45.6        46.0        46.0        46.0        33.5        33.3        33.1        32.7        32.5        32.3        32.1        32.0
     6     8  2017   114    4       44.8        34.6        34.6        34.6        34.6        34.0        33.5        33.2        33.0        32.7        32.6        32.4
     7     8  2017   115    4       45.0        38.2        33.0        32.9        32.4        32.4        32.2        32.2        32.1        32.0        31.9        31.9
     8     8  2017   116    4       38.8        34.4        33.5        32.7        32.7        32.2        32.1        31.9        31.8        31.7        31.7        31.6
     9     8  2017   117    4       41.8        33.1        32.4        32.1        31.9        31.8        31.7        31.6        31.5        31.5        31.5        31.4
    10     8  2017   118    4       39.0        33.6        32.4        32.0        31.8        31.7        31.6        31.5        31.4        31.4        31.4        31.3
    11     8  2017   119    4       39.4        33.1        32.2        31.9        31.7        31.5        31.5        31.4        31.4        31.3        31.3        31.3
    12     8  2017   120    4       45.4        39.8        32.2        31.8        31.6        31.5        31.4        31.4        31.3        31.3        31.3        31.2
    13     8  2017   121    4       45.6        46.0        33.8        33.4        32.6        32.2        31.9        31.8        31.7        31.6        31.5        31.4
    14     8  2017   122    4       45.7        43.0        34.6        33.5        33.0        32.6        32.3        32.1        32.0        31.9        31.8        31.8
    15     8  2017   123    4       38.8        34.6        34.2        33.4        32.9        32.8        32.5        32.3        32.1        32.0        31.9        31.8
    16     8  2017   124    4       32.6        33.1        33.0        32.2        32.2        32.0        31.9        31.8        31.7        31.6        31.6        31.6
    17     8  2017   125    4       40.7        31.6        31.6        31.5        31.5        31.4        31.4        31.4        31.3        31.3        31.3        31.3
    18     8  2017   126    4       32.8        33.1        32.1        32.1        31.5        31.5        31.4        31.3        31.3        31.3        31.2        31.2
    19     8  2017   127    4       35.6        31.6        31.6        31.5        31.4        31.3        31.3        31.3        31.2        31.2        31.2        31.2
    20     8  2017   128    4       33.0        32.1        31.6        31.6        31.3        31.3        31.2        31.2        31.2        31.2        31.1        31.1
    21     8  2017   129    4       30.5        31.6        31.5        31.4        31.3        31.2        31.2        31.2        31.1        31.1        31.1        31.1
    22     8  2017   130    4       30.7        31.2        31.1        31.1        31.1        31.1        31.1        31.1        31.1        31.1        31.1        31.1
    23     8  2017   131    4       35.1        31.0        31.0        31.0        31.0        31.0        31.0        31.0        31.0        31.0        31.0        31.0

Legend

DAP          : Days after planting
Stage        : 0: before/after planting
Stage        : 1: emergence or transplant recovery
Stage        : 2: vegetative stage
Stage        : 3: flowering
Stage        : 4: yield formation and ripening
