AquaCrop 6.1 (May 2018) - Output created on (date) : 12/04/2022   at (time) : 17:58:56
Net Irrigation Requirement

** Run number:  1
   Day Month  Year   DAP Stage        E        Trx        ET      Rain      Inet
                                      mm        mm        mm        mm        mm
    15     4  2017     1    1        4.9       0.0       4.9       0.0       0.0
    16     4  2017     2    1        2.9       0.0       2.9       0.0       0.0
    17     4  2017     3    1        2.3       0.0       2.3       0.0       0.0
    18     4  2017     4    1        3.7       0.0       3.7       0.1       0.0
    19     4  2017     5    1        2.7       0.0       2.7       0.0       0.0
    20     4  2017     6    1        1.9       0.0       1.9       0.0       0.0
    21     4  2017     7    1        1.6       0.0       1.6       0.0       0.0
    22     4  2017     8    1        1.2       0.1       1.3       0.0      15.1
    23     4  2017     9    2        7.5       0.1       7.5       0.0       7.5
    24     4  2017    10    2        6.4       0.1       6.5       0.0       6.0
    25     4  2017    11    2        6.8       0.1       6.9       0.0       6.5
    26     4  2017    12    2        7.0       0.1       7.1       0.0       6.6
    27     4  2017    13    2        7.0       0.1       7.2       0.0       6.7
    28     4  2017    14    2        6.1       0.1       6.3       0.0       5.7
    29     4  2017    15    2        4.0       0.1       4.1       1.9       1.6
    30     4  2017    16    2        3.5       0.1       3.6       6.5       0.0
     1     5  2017    17    2        5.2       0.1       5.3       3.7       0.0
     2     5  2017    18    2        4.7       0.2       4.9       0.3       3.6
     3     5  2017    19    2        5.2       0.3       5.5       0.0       5.7
     4     5  2017    20    2        5.3       0.3       5.6       0.0       5.2
     5     5  2017    21    2        4.5       0.3       4.8       0.0       3.9
     6     5  2017    22    2        4.6       0.3       4.9       0.1       4.2
     7     5  2017    23    2        3.6       0.2       3.8       1.7       1.2
     8     5  2017    24    2        4.2       0.3       4.5       2.4       2.1
     9     5  2017    25    2        3.8       0.3       4.0       4.1       0.0
    10     5  2017    26    2        2.4       0.2       2.6       3.2       0.0
    11     5  2017    27    2        3.6       0.3       3.9       2.9       0.0
    12     5  2017    28    2        3.8       0.4       4.1      10.7       0.0
    13     5  2017    29    2        3.2       0.3       3.6       5.4       0.0
    14     5  2017    30    2        2.5       0.3       2.8       5.6       0.0
    15     5  2017    31    2        1.8       0.2       2.0       8.3       0.0
    16     5  2017    32    2        1.7       0.2       1.9      11.0       0.0
    17     5  2017    33    2        1.3       0.2       1.5       0.7       0.0
    18     5  2017    34    2        3.5       0.6       4.1       2.3       0.0
    19     5  2017    35    2        4.2       1.0       5.2       0.1       0.0
    20     5  2017    36    2        4.2       1.3       5.5       0.1       0.0
    21     5  2017    37    2        3.2       1.0       4.2       2.4       0.6
    22     5  2017    38    2        2.7       0.8       3.5       2.9       0.0
    23     5  2017    39    2        2.7       1.0       3.7       1.1       2.5
    24     5  2017    40    2        4.0       1.6       5.6       2.3       4.0
    25     5  2017    41    2        4.4       2.6       7.0       0.0       7.8
    26     5  2017    42    2        4.0       2.7       6.6       0.0       5.9
    27     5  2017    43    2        2.8       2.0       4.8       0.4       3.0
    28     5  2017    44    2        2.2       1.5       3.7       1.3       1.4
    29     5  2017    45    2        2.3       1.7       4.0       3.0       0.9
    30     5  2017    46    2        2.6       2.7       5.2       0.8       4.9
    31     5  2017    47    2        2.1       2.3       4.4       2.8       1.0
     1     6  2017    48    2        1.9       2.3       4.2       4.5       0.0
     2     6  2017    49    2        1.4       1.8       3.3       1.6       0.8
     3     6  2017    50    2        1.5       2.3       3.8       1.0       2.9
     4     6  2017    51    2        1.5       2.6       4.1       2.6       1.6
     5     6  2017    52    2        1.3       2.6       3.9       3.2       0.6
     6     6  2017    53    2        1.1       2.4       3.6       4.1       0.0
     7     6  2017    54    2        1.3       3.0       4.3       3.5       0.0
     8     6  2017    55    2        1.5       4.1       5.6       1.5       4.4
     9     6  2017    56    2        1.3       3.9       5.2       0.8       3.7
    10     6  2017    57    2        1.2       3.7       4.9       0.6       3.8
    11     6  2017    58    2        1.3       4.2       5.4       0.7       4.7
    12     6  2017    59    2        1.4       5.1       6.5       0.5       6.3
    13     6  2017    60    2        1.3       4.7       6.0       1.4       4.3
    14     6  2017    61    2        1.1       4.4       5.6       1.7       3.6
    15     6  2017    62    2        0.8       3.1       3.8       2.7       0.2
    16     6  2017    63    2        0.7       2.6       3.2       4.5       0.0
    17     6  2017    64    2        0.8       3.1       3.9       4.0       0.0
    18     6  2017    65    2        0.9       4.1       5.0       0.7       3.3
    19     6  2017    66    2        0.7       3.1       3.8      13.0       0.0
    20     6  2017    67    2        0.6       2.8       3.4       5.5       0.0
    21     6  2017    68    2        0.4       1.9       2.3       8.9       0.0
    22     6  2017    69    2        1.0       4.5       5.5       1.3       0.0
    23     6  2017    70    2        0.9       4.2       5.1       1.2       0.0
    24     6  2017    71    2        0.8       3.7       4.4       2.0       0.0
    25     6  2017    72    2        0.4       1.9       2.4      13.4       0.0
    26     6  2017    73    2        0.3       1.4       1.7      26.3       0.0
    27     6  2017    74    3        0.4       1.8       2.2      45.7       0.0
    28     6  2017    75    3        0.2       0.8       0.9      31.7       0.0
    29     6  2017    76    3        0.4       1.7       2.1      74.9       0.0
    30     6  2017    77    3        0.2       1.0       1.2      66.6       0.0
     1     7  2017    78    3        0.3       1.1       1.3      48.1       0.0
     2     7  2017    79    3        0.3       1.0       1.3      15.8       0.0
     3     7  2017    80    3        0.3       1.1       1.3      48.5       0.0
     4     7  2017    81    3        0.2       0.8       1.0      16.0       0.0
     5     7  2017    82    3        0.3       1.4       1.7      12.7       0.0
     6     7  2017    83    3        0.1       0.6       0.8      19.2       0.0
     7     7  2017    84    3        0.2       0.7       0.9      16.8       0.0
     8     7  2017    85    3        0.3       1.2       1.4      29.2       0.0
     9     7  2017    86    3        0.2       1.0       1.2      15.9       0.0
    10     7  2017    87    3        0.1       0.6       0.7      37.5       0.0
    11     7  2017    88    3        0.2       0.7       0.9      22.0       0.0
    12     7  2017    89    3        0.1       0.5       0.6      17.5       0.0
    13     7  2017    90    3        0.1       0.5       0.6       2.1       0.0
    14     7  2017    91    3        0.1       0.6       0.8      20.8       0.0
    15     7  2017    92    3        0.4       1.7       2.1       5.2       0.0
    16     7  2017    93    3        0.3       1.4       1.7       3.6       0.0
    17     7  2017    94    3        0.5       1.9       2.4       2.1       0.0
    18     7  2017    95    3        0.5       2.4       2.9       0.5       0.0
    19     7  2017    96    3        0.2       0.9       1.1       6.0       0.0
    20     7  2017    97    4        0.3       1.1       1.4       0.2       0.0
    21     7  2017    98    4        0.3       1.0       1.2       6.8       0.0
    22     7  2017    99    4        0.3       1.1       1.4      12.6       0.0
    23     7  2017   100    4        0.1       0.4       0.6      25.5       0.0
    24     7  2017   101    4        0.4       1.1       1.5       3.1       0.0
    25     7  2017   102    4        0.2       0.5       0.6      14.0       0.0
    26     7  2017   103    4        0.3       0.7       1.0      17.1       0.0
    27     7  2017   104    4        0.4       1.2       1.6      17.2       0.0
    28     7  2017   105    4        0.7       1.7       2.4       4.6       0.0
    29     7  2017   106    4        0.6       1.3       1.9       8.4       0.0
    30     7  2017   107    4        0.3       0.7       1.0      10.3       0.0
    31     7  2017   108    4        0.4       0.6       1.0      10.3       0.0
     1     8  2017   109    4        0.3       0.5       0.8      41.5       0.0
     2     8  2017   110    4        0.6       0.9       1.6      15.2       0.0
     3     8  2017   111    4        0.5       0.6       1.1      22.3       0.0
     4     8  2017   112    4        0.3       0.3       0.6      32.5       0.0
     5     8  2017   113    4        0.3       0.3       0.6      47.6       0.0
     6     8  2017   114    4        0.3       0.3       0.6      10.9       0.0
     7     8  2017   115    4        0.8       0.6       1.3      17.1       0.0
     8     8  2017   116    4        0.4       0.2       0.7       6.2       0.0
     9     8  2017   117    4        0.7       0.4       1.1       9.8       0.0
    10     8  2017   118    4        0.2       0.1       0.3       6.1       0.0
    11     8  2017   119    4        1.0       0.3       1.3       7.6       0.0
    12     8  2017   120    4        0.5       0.1       0.6      19.4       0.0
    13     8  2017   121    4        0.4       0.1       0.4      24.7       0.0
    14     8  2017   122    4        0.2       0.0       0.3      20.5       0.0
    15     8  2017   123    4        0.8       0.1       0.9       6.4       0.0
    16     8  2017   124    4        0.5       0.0       0.5       1.4       0.0
    17     8  2017   125    4        0.7       0.0       0.8      10.0       0.0
    18     8  2017   126    4        0.8       0.0       0.8       0.8       0.0
    19     8  2017   127    4        1.5       0.0       1.5       5.6       0.0
    20     8  2017   128    4        1.1       0.0       1.1       2.2       0.0
    21     8  2017   129    4        1.3       0.0       1.3       0.6       0.0
    22     8  2017   130    4        1.4       0.0       1.4       1.6       0.0
    23     8  2017   131    4        1.0       0.0       1.0       5.4       0.0

Legend

DAP          : Days after planting
Stage        : 0: before/after planting
Stage        : 1: emergence or transplant recovery
Stage        : 2: vegetative stage
Stage        : 3: flowering
Stage        : 4: yield formation and ripening
E            : Soil evaporation
Trx          : Maximum crop transpiration
ET           : Evapotranspiration (E+Trx)
Rain         : Rainfall
Inet         : Net irrigation requirement
