AquaCrop 6.1 (May 2018) - Output created on (date) : 12/04/2022   at (time) : 17:58:56
Soil Water balance

** Run number:  1
   Day Month  Year   DAP Stage     WCTot    Rain     Irri   Surf   Infilt   RO    Drain       CR    Zgwt       Ex       E     E/Ex    Trx       Tr  Tr/Trx    ETx      ET   ET/ETx
                                      mm      mm       mm     mm     mm     mm       mm       mm      m        mm       mm     %       mm       mm    %        mm      mm      %
    15     4  2017     1    1      367.1     0.0      0.0    0.0    0.0    0.0      0.0      0.0   -9.90      6.6      4.9    74      0.0      0.0   100      6.6     4.9     74
    16     4  2017     2    1      364.2     0.0      0.0    0.0    0.0    0.0      0.0      0.0   -9.90      6.2      2.9    47      0.0      0.0   100      6.2     2.9     47
    17     4  2017     3    1      361.9     0.0      0.0    0.0    0.0    0.0      0.0      0.0   -9.90      6.7      2.3    35      0.0      0.0   100      6.7     2.3     35
    18     4  2017     4    1      358.3     0.1      0.0    0.0    0.1    0.0      0.0      0.0   -9.90      5.7      3.7    64      0.0      0.0   100      5.7     3.7     64
    19     4  2017     5    1      355.6     0.0      0.0    0.0    0.0    0.0      0.0      0.0   -9.90      6.8      2.7    39      0.0      0.0   100      6.8     2.7     39
    20     4  2017     6    1      353.7     0.0      0.0    0.0    0.0    0.0      0.0      0.0   -9.90      7.3      1.9    27      0.0      0.0   100      7.3     1.9     27
    21     4  2017     7    1      352.1     0.0      0.0    0.0    0.0    0.0      0.0      0.0   -9.90      7.9      1.6    20      0.0      0.0   100      7.9     1.6     20
    22     4  2017     8    1      365.9     0.0     15.1    0.0    0.0    0.0      0.0      0.0   -9.90      7.8      1.2    16      0.1      0.1   100      7.9     1.3     17
    23     4  2017     9    2      365.8     0.0      7.5    0.0    0.0    0.0      0.0      0.0   -9.90      7.6      7.5    98      0.1      0.1   100      7.7     7.5     98
    24     4  2017    10    2      365.3     0.0      6.0    0.0    0.0    0.0      0.0      0.0   -9.90      6.4      6.4   100      0.1      0.1   100      6.5     6.5    100
    25     4  2017    11    2      365.0     0.0      6.5    0.0    0.0    0.0      0.0      0.0   -9.90      6.8      6.8    99      0.1      0.1   100      6.9     6.9     99
    26     4  2017    12    2      364.5     0.0      6.6    0.0    0.0    0.0      0.0      0.0   -9.90      7.0      7.0    99      0.1      0.1   100      7.1     7.1     99
    27     4  2017    13    2      364.1     0.0      6.7    0.0    0.0    0.0      0.0      0.0   -9.90      7.1      7.0    99      0.1      0.1   100      7.2     7.2     99
    28     4  2017    14    2      363.6     0.0      5.7    0.0    0.0    0.0      0.0      0.0   -9.90      6.1      6.1   100      0.1      0.1   100      6.3     6.3    100
    29     4  2017    15    2      362.9     1.9      1.6    0.0    1.9    0.0      0.0      0.0   -9.90      4.3      4.0    94      0.1      0.1   100      4.4     4.1     94
    30     4  2017    16    2      365.8     6.5      0.0    0.0    6.5    0.0      0.0      0.0   -9.90      3.5      3.5   100      0.1      0.1   100      3.6     3.6    100
     1     5  2017    17    2      364.2     3.7      0.0    0.0    3.7    0.0      0.0      0.0   -9.90      5.3      5.2    98      0.1      0.1   100      5.5     5.3     98
     2     5  2017    18    2      363.2     0.3      3.6    0.0    0.3    0.0      0.0      0.0   -9.90      6.1      4.7    77      0.2      0.2   100      6.2     4.9     78
     3     5  2017    19    2      363.5     0.0      5.7    0.0    0.0    0.0      0.0      0.0   -9.90      8.1      5.2    65      0.3      0.3   100      8.3     5.5     66
     4     5  2017    20    2      363.0     0.0      5.2    0.0    0.0    0.0      0.0      0.0   -9.90      8.0      5.3    66      0.3      0.3   100      8.3     5.6     68
     5     5  2017    21    2      362.2     0.0      3.9    0.0    0.0    0.0      0.0      0.0   -9.90      6.5      4.5    70      0.3      0.3   100      6.8     4.8     71
     6     5  2017    22    2      361.6     0.1      4.2    0.0    0.1    0.0      0.0      0.0   -9.90      5.9      4.6    77      0.3      0.3   100      6.2     4.9     78
     7     5  2017    23    2      360.7     1.7      1.2    0.0    1.7    0.0      0.0      0.0   -9.90      3.8      3.6    94      0.2      0.2   100      4.0     3.8     95
     8     5  2017    24    2      360.8     2.4      2.1    0.0    2.4    0.0      0.0      0.0   -9.90      4.4      4.2    95      0.3      0.3   100      4.7     4.5     95
     9     5  2017    25    2      360.8     4.1      0.0    0.0    4.1    0.0      0.0      0.0   -9.90      3.8      3.8   100      0.3      0.3   100      4.0     4.0    100
    10     5  2017    26    2      361.4     3.2      0.0    0.0    3.2    0.0      0.0      0.0   -9.90      2.4      2.4   100      0.2      0.2   100      2.6     2.6    100
    11     5  2017    27    2      360.4     2.9      0.0    0.0    2.9    0.0      0.0      0.0   -9.90      3.6      3.6    99      0.3      0.3   100      3.9     3.9     99
    12     5  2017    28    2      367.0    10.7      0.0    0.0   10.7    0.0      0.0      0.0   -9.90      3.8      3.8   100      0.4      0.4   100      4.1     4.1    100
    13     5  2017    29    2      368.9     5.4      0.0    0.0    5.4    0.0      0.0      0.0   -9.90      3.2      3.2   100      0.3      0.3   100      3.6     3.6    100
    14     5  2017    30    2      371.7     5.6      0.0    0.0    5.6    0.0      0.0      0.0   -9.90      2.5      2.5   100      0.3      0.3   100      2.8     2.8    100
    15     5  2017    31    2      377.9     8.3      0.0    0.0    8.3    0.0      0.0      0.0   -9.90      1.8      1.8   100      0.2      0.2   100      2.0     2.0    100
    16     5  2017    32    2      386.7    11.0      0.0    0.0   11.0    0.0      0.4      0.0   -9.90      1.7      1.7   100      0.2      0.2   100      1.9     1.9    100
    17     5  2017    33    2      381.5     0.7      0.0    0.0    0.7    0.0      4.4      0.0   -9.90      1.3      1.3    99      0.2      0.2   100      1.5     1.5     99
    18     5  2017    34    2      374.7     2.3      0.0    0.0    2.3    0.0      5.0      0.0   -9.90      3.6      3.5    98      0.6      0.6   100      4.2     4.1     98
    19     5  2017    35    2      367.0     0.1      0.0    0.0    0.1    0.0      2.7      0.0   -9.90      5.4      4.2    78      1.0      1.0   100      6.4     5.2     81
    20     5  2017    36    2      360.5     0.1      0.0    0.0    0.1    0.0      1.0      0.0   -9.90      5.6      4.2    75      1.3      1.3   100      6.9     5.5     80
    21     5  2017    37    2      359.0     2.4      0.6    0.0    2.4    0.0      0.3      0.0   -9.90      3.7      3.2    86      1.0      1.0   100      4.7     4.2     89
    22     5  2017    38    2      358.4     2.9      0.0    0.0    2.9    0.0      0.0      0.0   -9.90      2.7      2.7   100      0.8      0.8   100      3.5     3.5    100
    23     5  2017    39    2      358.2     1.1      2.5    0.0    1.1    0.0      0.0      0.0   -9.90      2.9      2.7    94      1.0      1.0   100      3.9     3.7     95
    24     5  2017    40    2      358.9     2.3      4.0    0.0    2.3    0.0      0.0      0.0   -9.90      4.2      4.0    95      1.6      1.6   100      5.8     5.6     96
    25     5  2017    41    2      359.6     0.0      7.8    0.0    0.0    0.0      0.0      0.0   -9.90      5.7      4.4    76      2.6      2.6   100      8.3     7.0     84
    26     5  2017    42    2      359.0     0.0      5.9    0.0    0.0    0.0      0.0      0.0   -9.90      4.9      4.0    81      2.7      2.7   100      7.6     6.6     88
    27     5  2017    43    2      357.5     0.4      3.0    0.0    0.4    0.0      0.0      0.0   -9.90      3.2      2.8    87      2.0      2.0   100      5.2     4.8     92
    28     5  2017    44    2      356.5     1.3      1.4    0.0    1.3    0.0      0.0      0.0   -9.90      2.2      2.2    98      1.5      1.5   100      3.7     3.7     99
    29     5  2017    45    2      356.4     3.0      0.9    0.0    3.0    0.0      0.0      0.0   -9.90      2.3      2.3   100      1.7      1.7   100      4.0     4.0    100
    30     5  2017    46    2      356.9     0.8      4.9    0.0    0.8    0.0      0.0      0.0   -9.90      2.8      2.6    92      2.7      2.7   100      5.4     5.2     96
    31     5  2017    47    2      356.3     2.8      1.0    0.0    2.8    0.0      0.0      0.0   -9.90      2.1      2.1   100      2.3      2.3   100      4.4     4.4    100
     1     6  2017    48    2      356.6     4.5      0.0    0.0    4.5    0.0      0.0      0.0   -9.90      1.9      1.9   100      2.3      2.3   100      4.2     4.2    100
     2     6  2017    49    2      355.8     1.6      0.8    0.0    1.6    0.0      0.0      0.0   -9.90      1.4      1.4   100      1.8      1.8   100      3.3     3.3    100
     3     6  2017    50    2      356.0     1.0      2.9    0.0    1.0    0.0      0.0      0.0   -9.90      1.5      1.5    98      2.3      2.3   100      3.8     3.8     99
     4     6  2017    51    2      356.1     2.6      1.6    0.0    2.6    0.0      0.0      0.0   -9.90      1.5      1.5   100      2.6      2.6   100      4.1     4.1    100
     5     6  2017    52    2      356.0     3.2      0.6    0.0    3.2    0.0      0.0      0.0   -9.90      1.3      1.3   100      2.6      2.6   100      3.9     3.9    100
     6     6  2017    53    2      356.5     4.1      0.0    0.0    4.1    0.0      0.0      0.0   -9.90      1.1      1.1   100      2.4      2.4   100      3.6     3.6    100
     7     6  2017    54    2      355.8     3.5      0.0    0.0    3.5    0.0      0.0      0.0   -9.90      1.3      1.3   100      3.0      3.0   100      4.3     4.3    100
     8     6  2017    55    2      356.0     1.5      4.4    0.0    1.5    0.0      0.0      0.0   -9.90      1.5      1.5   100      4.1      4.1   100      5.6     5.6    100
     9     6  2017    56    2      355.3     0.8      3.7    0.0    0.8    0.0      0.0      0.0   -9.90      1.4      1.3    99      3.9      3.9   100      5.2     5.2    100
    10     6  2017    57    2      354.7     0.6      3.8    0.0    0.6    0.0      0.0      0.0   -9.90      1.2      1.2    98      3.7      3.7   100      5.0     4.9    100
    11     6  2017    58    2      354.7     0.7      4.7    0.0    0.7    0.0      0.0      0.0   -9.90      1.3      1.3    98      4.2      4.2   100      5.5     5.4    100
    12     6  2017    59    2      355.1     0.5      6.3    0.0    0.5    0.0      0.0      0.0   -9.90      1.4      1.4    97      5.1      5.1   100      6.5     6.5     99
    13     6  2017    60    2      354.8     1.4      4.3    0.0    1.4    0.0      0.0      0.0   -9.90      1.3      1.3   100      4.7      4.7   100      6.0     6.0    100
    14     6  2017    61    2      354.5     1.7      3.6    0.0    1.7    0.0      0.0      0.0   -9.90      1.1      1.1   100      4.4      4.4   100      5.6     5.6    100
    15     6  2017    62    2      353.6     2.7      0.2    0.0    2.7    0.0      0.0      0.0   -9.90      0.8      0.8   100      3.1      3.1   100      3.8     3.8    100
    16     6  2017    63    2      354.8     4.5      0.0    0.0    4.5    0.0      0.0      0.0   -9.90      0.7      0.7   100      2.6      2.6   100      3.2     3.2    100
    17     6  2017    64    2      355.0     4.0      0.0    0.0    4.0    0.0      0.0      0.0   -9.90      0.8      0.8   100      3.1      3.1   100      3.9     3.9    100
    18     6  2017    65    2      353.9     0.7      3.3    0.0    0.7    0.0      0.0      0.0   -9.90      1.0      0.9   100      4.1      4.1   100      5.0     5.0    100
    19     6  2017    66    2      363.1    13.0      0.0    0.0   13.0    0.0      0.0      0.0   -9.90      0.7      0.7   100      3.1      3.1   100      3.8     3.8    100
    20     6  2017    67    2      365.2     5.5      0.0    0.0    5.5    0.0      0.0      0.0   -9.90      0.6      0.6   100      2.8      2.8   100      3.4     3.4    100
    21     6  2017    68    2      371.8     8.9      0.0    0.0    8.9    0.0      0.0      0.0   -9.90      0.4      0.4   100      1.9      1.9   100      2.3     2.3    100
    22     6  2017    69    2      367.6     1.3      0.0    0.0    1.3    0.0      0.0      0.0   -9.90      1.0      1.0   100      4.5      4.5   100      5.5     5.5    100
    23     6  2017    70    2      363.7     1.2      0.0    0.0    1.2    0.0      0.0      0.0   -9.90      0.9      0.9   100      4.2      4.2   100      5.1     5.1    100
    24     6  2017    71    2      361.3     2.0      0.0    0.0    2.0    0.0      0.0      0.0   -9.90      0.8      0.8   100      3.7      3.7   100      4.4     4.4    100
    25     6  2017    72    2      372.4    13.4      0.0    0.0   13.4    0.0      0.0      0.0   -9.90      0.4      0.4   100      1.9      1.9   100      2.4     2.4    100
    26     6  2017    73    2      396.9    26.3      0.0    0.0   26.3    0.0      0.0      0.0   -9.90      0.3      0.3   100      1.4      1.4   100      1.7     1.7    100
    27     6  2017    74    3      433.6    45.7      0.0    0.0   45.7    0.0      6.8      0.0   -9.90      0.4      0.4   100      1.8      1.8   100      2.2     2.2    100
    28     6  2017    75    3      432.2    31.7      0.0    0.0   31.7    0.0     32.2      0.0   -9.90      0.2      0.2   100      0.8      0.8   100      0.9     0.9    100
    29     6  2017    76    3      472.2    74.9      0.0    0.0   74.9    0.0     32.9      0.0   -9.90      0.4      0.4   100      1.7      1.7   100      2.1     2.1    100
    30     6  2017    77    3      474.9    66.6      0.0    0.0   66.6    0.0     62.6      0.0   -9.90      0.2      0.2   100      1.0      1.0   100      1.2     1.2    100
     1     7  2017    78    3      455.1    48.1      0.0    0.0   48.1    0.0     66.6      0.0   -9.90      0.3      0.3   100      1.1      1.1   100      1.3     1.3    100
     2     7  2017    79    3      418.8    15.8      0.0    0.0   15.8    0.0     50.9      0.0   -9.90      0.3      0.3   100      1.0      1.0   100      1.3     1.3    100
     3     7  2017    80    3      439.6    48.5      0.0    0.0   48.5    0.0     26.4      0.0   -9.90      0.3      0.3   100      1.1      1.1   100      1.3     1.3    100
     4     7  2017    81    3      417.3    16.0      0.0    0.0   16.0    0.0     37.3      0.0   -9.90      0.2      0.2   100      0.8      0.8   100      1.0     1.0    100
     5     7  2017    82    3      402.9    12.7      0.0    0.0   12.7    0.0     25.4      0.0   -9.90      0.3      0.3   100      1.4      1.4   100      1.7     1.7    100
     6     7  2017    83    3      406.0    19.2      0.0    0.0   19.2    0.0     15.3      0.0   -9.90      0.1      0.1   100      0.6      0.6   100      0.8     0.8    100
     7     7  2017    84    3      406.7    16.8      0.0    0.0   16.8    0.0     15.2      0.0   -9.90      0.2      0.2   100      0.7      0.7   100      0.9     0.9    100
     8     7  2017    85    3      418.3    29.2      0.0    0.0   29.2    0.0     16.2      0.0   -9.90      0.3      0.3   100      1.2      1.2   100      1.4     1.4    100
     9     7  2017    86    3      410.5    15.9      0.0    0.0   15.9    0.0     22.6      0.0   -9.90      0.2      0.2   100      1.0      1.0   100      1.2     1.2    100
    10     7  2017    87    3      427.5    37.5      0.0    0.0   37.5    0.0     19.7      0.0   -9.90      0.1      0.1   100      0.6      0.6   100      0.7     0.7    100
    11     7  2017    88    3      420.6    22.0      0.0    0.0   22.0    0.0     28.1      0.0   -9.90      0.2      0.2   100      0.7      0.7   100      0.9     0.9    100
    12     7  2017    89    3      411.9    17.5      0.0    0.0   17.5    0.0     25.5      0.0   -9.90      0.1      0.1   100      0.5      0.5   100      0.6     0.6    100
    13     7  2017    90    3      393.1     2.1      0.0    0.0    2.1    0.0     20.3      0.0   -9.90      0.1      0.1   100      0.5      0.5   100      0.6     0.6    100
    14     7  2017    91    3      400.6    20.8      0.0    0.0   20.8    0.0     12.6      0.0   -9.90      0.1      0.1   100      0.6      0.6   100      0.8     0.8    100
    15     7  2017    92    3      391.7     5.2      0.0    0.0    5.2    0.0     12.0      0.0   -9.90      0.4      0.4   100      1.7      1.7   100      2.1     2.1    100
    16     7  2017    93    3      383.2     3.6      0.0    0.0    3.6    0.0     10.3      0.0   -9.90      0.3      0.3   100      1.4      1.4   100      1.7     1.7    100
    17     7  2017    94    3      376.9     2.1      0.0    0.0    2.1    0.0      6.1      0.0   -9.90      0.5      0.5   100      1.9      1.9   100      2.4     2.4    100
    18     7  2017    95    3      371.5     0.5      0.0    0.0    0.5    0.0      3.0      0.0   -9.90      0.5      0.5   100      2.4      2.4   100      2.9     2.9    100
    19     7  2017    96    3      375.4     6.0      0.0    0.0    6.0    0.0      1.0      0.0   -9.90      0.2      0.2   100      0.9      0.9   100      1.1     1.1    100
    20     7  2017    97    4      373.3     0.2      0.0    0.0    0.2    0.0      0.9      0.0   -9.90      0.3      0.3   100      1.1      1.1   100      1.4     1.4    100
    21     7  2017    98    4      378.0     6.8      0.0    0.0    6.8    0.0      0.9      0.0   -9.90      0.3      0.3   100      1.0      1.0   100      1.2     1.2    100
    22     7  2017    99    4      387.6    12.6      0.0    0.0   12.6    0.0      1.6      0.0   -9.90      0.3      0.3   100      1.1      1.1   100      1.4     1.4    100
    23     7  2017   100    4      407.8    25.5      0.0    0.0   25.5    0.0      4.7      0.0   -9.90      0.1      0.1   100      0.4      0.4   100      0.6     0.6    100
    24     7  2017   101    4      394.4     3.1      0.0    0.0    3.1    0.0     15.0      0.0   -9.90      0.4      0.4   100      1.1      1.1   100      1.5     1.5    100
    25     7  2017   102    4      394.6    14.0      0.0    0.0   14.0    0.0     13.2      0.0   -9.90      0.2      0.2   100      0.5      0.5   100      0.6     0.6    100
    26     7  2017   103    4      401.1    17.1      0.0    0.0   17.1    0.0      9.6      0.0   -9.90      0.3      0.3   100      0.7      0.7   100      1.0     1.0    100
    27     7  2017   104    4      404.4    17.2      0.0    0.0   17.2    0.0     12.2      0.0   -9.90      0.4      0.4   100      1.2      1.2   100      1.6     1.6    100
    28     7  2017   105    4      391.9     4.6      0.0    0.0    4.6    0.0     14.7      0.0   -9.90      0.7      0.7   100      1.7      1.7   100      2.4     2.4    100
    29     7  2017   106    4      387.2     8.4      0.0    0.0    8.4    0.0     11.1      0.0   -9.90      0.6      0.6   100      1.3      1.3   100      1.9     1.9    100
    30     7  2017   107    4      389.6    10.3      0.0    0.0   10.3    0.0      6.9      0.0   -9.90      0.3      0.3   100      0.7      0.7   100      1.0     1.0    100
    31     7  2017   108    4      392.4    10.3      0.0    0.0   10.3    0.0      6.5      0.0   -9.90      0.4      0.4   100      0.6      0.6   100      1.0     1.0    100
     1     8  2017   109    4      425.4    41.5      0.0    0.0   41.5    0.0      7.7      0.0   -9.90      0.3      0.3   100      0.5      0.5   100      0.8     0.8    100
     2     8  2017   110    4      412.7    15.2      0.0    0.0   15.2    0.0     26.4      0.0   -9.90      0.6      0.6   100      0.9      0.9   100      1.6     1.6    100
     3     8  2017   111    4      412.4    22.3      0.0    0.0   22.3    0.0     21.5      0.0   -9.90      0.5      0.5   100      0.6      0.6   100      1.1     1.1    100
     4     8  2017   112    4      425.1    32.5      0.0    0.0   32.5    0.0     19.2      0.0   -9.90      0.3      0.3   100      0.3      0.3   100      0.6     0.6    100
     5     8  2017   113    4      445.0    47.6      0.0    0.0   47.6    0.0     27.1      0.0   -9.90      0.3      0.3   100      0.3      0.3   100      0.6     0.6    100
     6     8  2017   114    4      414.7    10.9      0.0    0.0   10.9    0.0     40.7      0.0   -9.90      0.3      0.3   100      0.3      0.3   100      0.6     0.6    100
     7     8  2017   115    4      406.1    17.1      0.0    0.0   17.1    0.0     24.3      0.0   -9.90      0.8      0.8   100      0.6      0.6   100      1.3     1.3    100
     8     8  2017   116    4      395.1     6.2      0.0    0.0    6.2    0.0     16.6      0.0   -9.90      0.4      0.4   100      0.2      0.2   100      0.7     0.7    100
     9     8  2017   117    4      392.2     9.8      0.0    0.0    9.8    0.0     11.6      0.0   -9.90      0.7      0.7   100      0.4      0.4   100      1.1     1.1    100
    10     8  2017   118    4      389.2     6.1      0.0    0.0    6.1    0.0      8.8      0.0   -9.90      0.2      0.2   100      0.1      0.1   100      0.3     0.3    100
    11     8  2017   119    4      388.1     7.6      0.0    0.0    7.6    0.0      7.4      0.0   -9.90      1.0      1.0   100      0.3      0.3   100      1.3     1.3    100
    12     8  2017   120    4      400.3    19.4      0.0    0.0   19.4    0.0      6.5      0.0   -9.90      0.5      0.5   100      0.1      0.1   100      0.6     0.6    100
    13     8  2017   121    4      413.4    24.7      0.0    0.0   24.7    0.0     11.2      0.0   -9.90      0.4      0.4   100      0.1      0.1   100      0.4     0.4    100
    14     8  2017   122    4      414.4    20.5      0.0    0.0   20.5    0.0     19.3      0.0   -9.90      0.2      0.2   100      0.0      0.0   100      0.3     0.3    100
    15     8  2017   123    4      399.1     6.4      0.0    0.0    6.4    0.0     20.8      0.0   -9.90      0.8      0.8   100      0.1      0.1   100      0.9     0.9    100
    16     8  2017   124    4      385.1     1.4      0.0    0.0    1.4    0.0     14.9      0.0   -9.90      0.5      0.5   100      0.0      0.0   100      0.5     0.5    100
    17     8  2017   125    4      386.4    10.0      0.0    0.0   10.0    0.0      8.0      0.0   -9.90      0.7      0.7   100      0.0      0.0   100      0.8     0.8    100
    18     8  2017   126    4      380.8     0.8      0.0    0.0    0.8    0.0      5.6      0.0   -9.90      0.8      0.8   100      0.0      0.0   100      0.8     0.8    100
    19     8  2017   127    4      380.3     5.6      0.0    0.0    5.6    0.0      4.6      0.0   -9.90      1.5      1.5   100      0.0      0.0   100      1.5     1.5    100
    20     8  2017   128    4      377.9     2.2      0.0    0.0    2.2    0.0      3.5      0.0   -9.90      1.1      1.1   100      0.0      0.0   100      1.1     1.1    100
    21     8  2017   129    4      374.3     0.6      0.0    0.0    0.6    0.0      2.9      0.0   -9.90      1.4      1.3    98      0.0      0.0   100      1.4     1.3     98
    22     8  2017   130    4      372.8     1.6      0.0    0.0    1.6    0.0      1.7      0.0   -9.90      1.4      1.4   100      0.0      0.0   100      1.4     1.4    100
    23     8  2017   131    4      376.4     5.4      0.0    0.0    5.4    0.0      0.7      0.0   -9.90      1.0      1.0   100      0.0      0.0   100      1.0     1.0    100

Legend

DAP          : Days after planting
Stage        : 0: before/after planting
Stage        : 1: emergence or transplant recovery
Stage        : 2: vegetative stage
Stage        : 3: flowering
Stage        : 4: yield formation and ripening
WCTot        : Water content in total soil profile
Rain         : Rainfall
Irri         : Water applied by irrigation
Surf         : Stored water on soil surface between bunds
Infilt       : Infiltrated water in soil profile
RO           : Surface runoff
Drain        : Water drained out of the soil profile
CR           : Water moved upward by capillary rise
Zgwt         : Depth of the groundwater table (-9.90 if absent)
Ex           : Maximum soil evaporation
E            : Soil evaporation
E/Ex         : Relative soil evaporation (100 E/Ex)
Trx          : Maximum crop transpiration
Tr           : Total transpiration of crop and weeds
Tr/Trx       : Relative transpiration (100 Tr/Trx)
ETx          : Evapotranspiration maximale
ET           : Evapotranspiration
ET/ETx       : Evapotranspiration relative (100 ET/ETx)
