AquaCrop 6.1 (May 2018) - Output created on (date) : 12/04/2022   at (time) : 17:58:56
Soil Water content in soil profile (WC) and root zone (Wr)

** Run number:  1   -- Water content in soil profile (WCTot layer: 0.00 - 1.20 m) and root zone (Wr with Zx = 1.00 m)
   Day Month  Year   DAP Stage     WCTot   Wr(Zx)      Z       Wr    Wr(SAT)    Wr(FC)   Wr(exp)   Wr(sto)   Wr(sen)   Wr(PWP)
                                     mm       mm       m       mm        mm        mm        mm        mm        mm        mm
    15     4  2017     1    1     367.1    305.1    0.30     88.1     138.0      93.0      86.3      61.0      59.9      45.0
    16     4  2017     2    1     364.2    302.2    0.30     85.2     138.0      93.0      86.3      60.5      59.9      45.0
    17     4  2017     3    1     361.9    299.9    0.30     82.9     138.0      93.0      86.3      61.1      59.9      45.0
    18     4  2017     4    1     358.3    296.3    0.30     79.3     138.0      93.0      86.3      60.1      59.9      45.0
    19     4  2017     5    1     355.6    293.6    0.30     76.6     138.0      93.0      86.3      61.2      59.9      45.0
    20     4  2017     6    1     353.7    291.7    0.30     74.7     138.0      93.0      86.3      61.7      59.9      45.0
    21     4  2017     7    1     352.1    290.1    0.30     73.1     138.0      93.0      86.3      62.3      59.9      45.0
    22     4  2017     8    1     365.9    303.9    0.30     86.9     138.0      93.0      90.3      62.3      62.3      45.0
    23     4  2017     9    2     365.8    303.8    0.30     86.8     138.0      93.0      89.9      62.1      62.1      45.0
    24     4  2017    10    2     365.3    303.3    0.31     89.9     143.0      96.4      91.1      63.1      63.1      46.6
    25     4  2017    11    2     365.0    303.0    0.32     94.1     149.3     100.6      95.9      66.4      66.4      48.7
    26     4  2017    12    2     364.5    302.5    0.34     97.9     155.3     104.6     100.1      69.2      69.2      50.6
    27     4  2017    13    2     364.1    302.1    0.35    101.4     160.9     108.5     104.0      71.9      71.9      52.5
    28     4  2017    14    2     363.6    301.6    0.36    104.9     167.1     112.6     106.0      73.5      73.5      54.5
    29     4  2017    15    2     362.9    300.9    0.38    107.9     172.8     116.4     105.8      73.6      73.6      56.3
    30     4  2017    16    2     365.8    303.8    0.39    113.7     177.4     119.5     107.0      74.5      74.5      57.8
     1     5  2017    17    2     364.2    302.2    0.40    115.0     182.1     122.7     113.9      79.0      79.0      59.4
     2     5  2017    18    2     363.2    301.2    0.41    117.2     186.7     125.8     118.5      82.1      82.1      60.9
     3     5  2017    19    2     363.5    301.5    0.42    121.2     191.9     129.3     126.5      87.3      87.3      62.6
     4     5  2017    20    2     363.0    301.0    0.43    124.5     197.0     132.8     129.9      89.6      89.6      64.3
     5     5  2017    21    2     362.2    300.2    0.44    126.9     201.6     135.9     129.2      89.4      89.4      65.7
     6     5  2017    22    2     361.6    299.6    0.45    129.4     206.1     138.9     130.7      90.6      90.6      67.2
     7     5  2017    23    2     360.7    298.7    0.46    131.3     210.3     141.7     127.9      89.0      89.0      68.6
     8     5  2017    24    2     360.8    298.8    0.47    134.3     214.9     144.8     132.4      92.1      92.1      70.1
     9     5  2017    25    2     360.8    298.8    0.48    137.3     219.6     148.0     133.5      93.0      93.0      71.6
    10     5  2017    26    2     361.4    299.4    0.49    140.4     223.6     150.7     132.2      92.4      92.4      72.9
    11     5  2017    27    2     360.4    298.4    0.50    142.3     228.1     153.7     138.4      96.4      96.4      74.4
    12     5  2017    28    2     367.0    305.0    0.51    151.6     232.4     156.6     141.6      98.6      98.6      75.8
    13     5  2017    29    2     368.9    306.9    0.51    156.2     236.4     159.3     142.6      99.4      99.4      77.1
    14     5  2017    30    2     371.7    309.7    0.52    161.6     240.2     161.9     142.6      99.6      99.6      78.3
    15     5  2017    31    2     377.9    315.9    0.53    170.2     243.8     164.3     142.5      99.7      99.7      79.5
    16     5  2017    32    2     386.7    324.6    0.54    181.1     247.2     166.6     144.2     100.9     100.9      80.6
    17     5  2017    33    2     381.5    319.1    0.54    176.3     250.5     168.8     144.8     101.4     101.4      81.7
    18     5  2017    34    2     374.7    312.3    0.55    172.4     254.3     171.4     155.3     108.1     108.1      82.9
    19     5  2017    35    2     367.0    304.8    0.56    168.3     258.2     174.0     164.8     114.1     114.1      84.2
    20     5  2017    36    2     360.5    298.5    0.57    165.3     262.6     177.0     169.0     116.9     116.9      85.6
    21     5  2017    37    2     359.0    297.0    0.58    167.2     266.9     179.9     164.8     114.5     114.5      87.0
    22     5  2017    38    2     358.4    296.4    0.59    169.0     270.8     182.5     163.3     113.8     113.8      88.3
    23     5  2017    39    2     358.2    296.2    0.60    171.3     274.7     185.1     167.0     116.3     116.3      89.6
    24     5  2017    40    2     358.9    296.9    0.61    174.7     278.6     187.8     176.0     122.0     122.0      90.8
    25     5  2017    41    2     359.6    297.6    0.61    178.5     282.6     190.5     187.4     129.2     129.2      92.2
    26     5  2017    42    2     359.0    297.0    0.62    180.8     286.7     193.2     187.5     129.5     129.5      93.5
    27     5  2017    43    2     357.5    295.5    0.63    182.2     290.6     195.9     181.7     126.1     126.1      94.8
    28     5  2017    44    2     356.5    294.5    0.64    183.8     294.2     198.2     178.9     124.6     124.6      95.9
    29     5  2017    45    2     356.4    294.4    0.65    185.9     297.5     200.5     182.5     126.9     126.9      97.0
    30     5  2017    46    2     356.9    294.9    0.65    188.7     301.1     202.9     189.8     131.6     131.6      98.2
    31     5  2017    47    2     356.3    294.3    0.66    190.4     304.6     205.3     188.1     130.7     130.7      99.3
     1     6  2017    48    2     356.6    294.6    0.67    192.9     308.0     207.6     189.7     131.9     131.9     100.4
     2     6  2017    49    2     355.8    293.8    0.68    194.0     311.1     209.7     188.4     131.2     131.2     101.5
     3     6  2017    50    2     356.0    294.0    0.68    196.3     314.6     212.0     192.1     133.7     133.7     102.6
     4     6  2017    51    2     356.1    294.1    0.69    198.8     318.3     214.5     195.2     135.8     135.8     103.8
     5     6  2017    52    2     356.0    294.0    0.70    201.0     322.1     217.0     196.7     136.9     136.9     105.0
     6     6  2017    53    2     356.5    294.5    0.71    204.0     325.7     219.5     197.7     137.7     137.7     106.2
     7     6  2017    54    2     355.8    293.8    0.72    206.2     329.6     222.1     202.6     140.9     140.9     107.5
     8     6  2017    55    2     356.0    294.0    0.73    209.5     333.7     224.9     210.8     146.2     146.2     108.8
     9     6  2017    56    2     355.3    293.3    0.73    211.9     337.9     227.7     211.7     146.9     146.9     110.2
    10     6  2017    57    2     354.7    292.7    0.74    214.3     342.2     230.6     213.1     147.9     147.9     111.6
    11     6  2017    58    2     354.7    292.7    0.75    217.1     346.4     233.4     217.9     151.1     151.1     113.0
    12     6  2017    59    2     355.1    293.1    0.76    220.3     350.8     236.4     224.8     155.6     155.6     114.4
    13     6  2017    60    2     354.8    292.8    0.77    222.8     355.2     239.4     225.4     156.1     156.1     115.8
    14     6  2017    61    2     354.5    292.5    0.78    225.4     359.7     242.4     226.3     157.0     157.0     117.3
    15     6  2017    62    2     353.6    291.6    0.79    227.1     364.0     245.3     221.4     154.2     154.2     118.7
    16     6  2017    63    2     354.8    292.8    0.80    230.8     367.9     247.9     221.3     154.3     154.3     120.0
    17     6  2017    64    2     355.0    293.0    0.81    233.6     371.9     250.6     226.6     157.8     157.8     121.3
    18     6  2017    65    2     353.9    291.9    0.82    235.6     376.0     253.4     234.6     162.9     162.9     122.6
    19     6  2017    66    2     363.1    301.1    0.83    247.4     379.9     256.0     231.0     160.9     160.9     123.9
    20     6  2017    67    2     365.2    303.2    0.83    252.0     383.5     258.5     231.8     161.5     161.5     125.1
    21     6  2017    68    2     371.8    309.8    0.84    260.7     386.9     260.7     228.7     159.8     159.8     126.2
    22     6  2017    69    2     367.6    305.6    0.85    259.1     390.8     263.4     246.4     170.8     170.8     127.4
    23     6  2017    70    2     363.7    301.7    0.86    258.0     394.9     266.1     246.4     171.0     171.0     128.8
    24     6  2017    71    2     361.3    299.3    0.87    258.4     399.1     269.0     245.3     170.6     170.6     130.1
    25     6  2017    72    2     372.4    310.4    0.88    271.7     402.6     271.3     238.0     166.2     166.2     131.3
    26     6  2017    73    2     396.9    334.9    0.88    298.5     405.8     273.5     236.7     165.6     165.6     132.3
    27     6  2017    74    3     433.6    371.0    0.89    336.5     409.3     275.8     240.9     168.4     168.4     133.5
    28     6  2017    75    3     432.2    367.8    0.90    334.1     412.4     277.9     236.2     165.7     165.7     134.5
    29     6  2017    76    3     472.2    407.8    0.90    376.6     415.7     280.2     244.1     170.7     170.7     135.6
    30     6  2017    77    3     474.9    408.5    0.91    378.5     418.8     282.2     241.6     169.3     169.3     136.6
     1     7  2017    78    3     455.1    388.4    0.92    360.1     421.4     284.0     244.7     171.3     171.3     137.4
     2     7  2017    79    3     418.8    353.1    0.92    327.2     423.9     285.7     246.2     172.3     172.3     138.2
     3     7  2017    80    3     439.6    375.7    0.93    352.4     426.6     287.5     247.7     173.4     173.4     139.1
     4     7  2017    81    3     417.3    352.4    0.93    330.6     429.4     289.4     246.5     172.8     172.8     140.0
     5     7  2017    82    3     402.9    339.0    0.94    319.9     432.6     291.5     252.3     176.5     176.5     141.0
     6     7  2017    83    3     406.0    342.8    0.95    325.9     435.3     293.4     248.8     174.5     174.5     142.0
     7     7  2017    84    3     406.7    343.5    0.95    328.4     438.1     295.2     250.9     176.0     176.0     142.9
     8     7  2017    85    3     418.3    355.1    0.96    342.0     440.9     297.2     256.0     179.3     179.3     143.8
     9     7  2017    86    3     410.5    346.6    0.96    335.4     443.9     299.1     256.0     179.4     179.4     144.7
    10     7  2017    87    3     427.5    364.0    0.97    354.7     446.7     301.0     254.7     178.7     178.7     145.7
    11     7  2017    88    3     420.6    356.4    0.98    349.1     449.5     303.0     257.5     180.6     180.6     146.6
    12     7  2017    89    3     411.9    348.0    0.98    342.7     452.4     304.9     257.4     180.7     180.7     147.5
    13     7  2017    90    3     393.1    329.6    0.99    326.3     455.3     306.8     259.0     181.8     181.8     148.5
    14     7  2017    91    3     400.6    337.6    1.00    336.3     458.1     308.7     261.8     183.7     183.7     149.4
    15     7  2017    92    3     391.7    328.7    1.00    328.7     460.0     310.0     271.3     189.6     189.6     150.0
    16     7  2017    93    3     383.2    320.5    1.00    320.5     460.0     310.0     269.5     188.5     188.5     150.0
    17     7  2017    94    3     376.9    314.4    1.00    314.4     460.0     310.0     273.7     191.1     191.1     150.0
    18     7  2017    95    3     371.5    309.3    1.00    309.3     460.0     310.0     276.8     192.9     192.9     150.0
    19     7  2017    96    3     375.4    313.3    1.00    313.3     460.0     310.0     265.3     185.9     185.9     150.0
    20     7  2017    97    4     373.3    311.2    1.00    311.2     460.0     310.0     267.1     187.0     187.0     150.0
    21     7  2017    98    4     378.0    315.9    1.00    315.9     460.0     310.0     266.5     186.6     186.6     150.0
    22     7  2017    99    4     387.6    325.4    1.00    325.4     460.0     310.0     268.3     187.7     187.7     150.0
    23     7  2017   100    4     407.8    345.4    1.00    345.4     460.0     310.0     262.3     184.0     184.0     150.0
    24     7  2017   101    4     394.4    331.1    1.00    331.1     460.0     310.0     269.5     188.5     188.5     150.0
    25     7  2017   102    4     394.6    331.6    1.00    331.6     460.0     310.0     262.9     184.4     184.4     150.0
    26     7  2017   103    4     401.1    338.3    1.00    338.3     460.0     310.0     265.9     186.3     186.3     150.0
    27     7  2017   104    4     404.4    341.4    1.00    341.4     460.0     310.0     270.7     189.2     189.2     150.0
    28     7  2017   105    4     391.9    328.7    1.00    328.7     460.0     310.0     278.0     193.7     193.7     150.0
    29     7  2017   106    4     387.2    324.4    1.00    324.4     460.0     310.0     274.3     191.5     191.5     150.0
    30     7  2017   107    4     389.6    327.1    1.00    327.1     460.0     310.0     267.1     187.0     187.0     150.0
    31     7  2017   108    4     392.4    329.9    1.00    329.9     460.0     310.0     267.7     187.4     187.4     150.0
     1     8  2017   109    4     425.4    362.8    1.00    362.8     460.0     310.0     265.9     186.3     186.3     150.0
     2     8  2017   110    4     412.7    348.5    1.00    348.5     460.0     310.0     274.3     191.5     191.5     150.0
     3     8  2017   111    4     412.4    348.8    1.00    348.8     460.0     310.0     269.5     188.5     188.5     150.0
     4     8  2017   112    4     425.1    361.6    1.00    361.6     460.0     310.0     264.7     185.5     185.5     150.0
     5     8  2017   113    4     445.0    380.9    1.00    380.9     460.0     310.0     264.7     185.5     185.5     150.0
     6     8  2017   114    4     414.7    349.7    1.00    349.7     460.0     310.0     264.7     185.5     185.5     150.0
     7     8  2017   115    4     406.1    342.3    1.00    342.3     460.0     310.0     274.9     191.8     191.8     150.0
     8     8  2017   116    4     395.1    331.8    1.00    331.8     460.0     310.0     266.5     186.6     186.6     150.0
     9     8  2017   117    4     392.2    329.3    1.00    329.3     460.0     310.0     273.1     190.7     190.7     150.0
    10     8  2017   118    4     389.2    326.5    1.00    326.5     460.0     310.0     262.3     184.0     184.0     150.0
    11     8  2017   119    4     388.1    325.5    1.00    325.5     460.0     310.0     277.4     193.3     193.3     150.0
    12     8  2017   120    4     400.3    337.8    1.00    337.8     460.0     310.0     267.1     187.0     187.0     150.0
    13     8  2017   121    4     413.4    350.5    1.00    350.5     460.0     310.0     264.7     185.5     185.5     150.0
    14     8  2017   122    4     414.4    350.8    1.00    350.8     460.0     310.0     261.7     183.7     183.7     150.0
    15     8  2017   123    4     399.1    335.4    1.00    335.4     460.0     310.0     271.9     190.0     190.0     150.0
    16     8  2017   124    4     385.1    321.9    1.00    321.9     460.0     310.0     265.3     185.9     185.9     150.0
    17     8  2017   125    4     386.4    323.8    1.00    323.8     460.0     310.0     268.9     188.1     188.1     150.0
    18     8  2017   126    4     380.8    318.4    1.00    318.4     460.0     310.0     268.3     187.7     187.7     150.0
    19     8  2017   127    4     380.3    318.0    1.00    318.0     460.0     310.0     276.8     192.9     192.9     150.0
    20     8  2017   128    4     377.9    315.6    1.00    315.6     460.0     310.0     270.7     189.2     189.2     150.0
    21     8  2017   129    4     374.3    312.0    1.00    312.0     460.0     310.0     272.5     190.3     190.3     150.0
    22     8  2017   130    4     372.8    310.6    1.00    310.6     460.0     310.0     271.3     189.6     189.6     150.0
    23     8  2017   131    4     376.4    314.4    1.00    314.4     460.0     310.0     271.3     186.6     189.6     150.0

Legend

DAP          : Days after planting
Stage        : 0: before/after planting
Stage        : 1: emergence or transplant recovery
Stage        : 2: vegetative stage
Stage        : 3: flowering
Stage        : 4: yield formation and ripening
WCTot        : Water content in total soil profile (layer: 0.00 - 1.20 m)
Wr(Zx)       : Water content in maximum effective root zone (Zx = 1.00 m)
Z            : Effective rooting depth
Wr           : Water content in effective root zone
Wr(Sat)      : Water content in effective root zone if saturated
Wr(FC)       : Water content in effective root zone at field capacity
Wr(exp)      : Water content in effective root zone at upper threshold for leaf expansion
Wr(sto)      : Water content in effective root zone at upper threshold for stomatal closure
Wr(sen)      : Water content in effective root zone at upper threshold for early canopy senescence
Wr(PWP)      : Water content in effective root zone at permanent wilting point
