AquaCrop 6.1 (May 2018) - Output created on (date) : 12/04/2022   at (time) : 17:58:56
Soil salinity in soil profile and root zone

** Run number:  1   -- Salt balance for soil profile (Total layer: 0.00 - 1.20 m) and soil salinity in root zone (Z)
   Day Month  Year   DAP Stage   SaltIn    SaltOut   SaltUp    SaltTot    SaltZ     Z       ECe    ECsw   StSalt  Zgwt    ECgw
                                 ton/ha    ton/ha    ton/ha    ton/ha    ton/ha     m      dS/m    dS/m      %     m      dS/m
    15     4  2017     1    1     0.000     0.000     0.000     0.000     0.000    0.30    0.00    0.00      0   -9.90   -9.00
    16     4  2017     2    1     0.000     0.000     0.000     0.000     0.000    0.30    0.00    0.00      0   -9.90   -9.00
    17     4  2017     3    1     0.000     0.000     0.000     0.000     0.000    0.30    0.00    0.00      0   -9.90   -9.00
    18     4  2017     4    1     0.000     0.000     0.000     0.000     0.000    0.30    0.00    0.00      0   -9.90   -9.00
    19     4  2017     5    1     0.000     0.000     0.000     0.000     0.000    0.30    0.00    0.00      0   -9.90   -9.00
    20     4  2017     6    1     0.000     0.000     0.000     0.000     0.000    0.30    0.00    0.00      0   -9.90   -9.00
    21     4  2017     7    1     0.000     0.000     0.000     0.000     0.000    0.30    0.00    0.00      0   -9.90   -9.00
    22     4  2017     8    1     0.000     0.000     0.000     0.000     0.000    0.30    0.00    0.00      0   -9.90   -9.00
    23     4  2017     9    2     0.000     0.000     0.000     0.000     0.000    0.30    0.00    0.00      0   -9.90   -9.00
    24     4  2017    10    2     0.000     0.000     0.000     0.000     0.000    0.31    0.00    0.00      0   -9.90   -9.00
    25     4  2017    11    2     0.000     0.000     0.000     0.000     0.000    0.32    0.00    0.00      0   -9.90   -9.00
    26     4  2017    12    2     0.000     0.000     0.000     0.000     0.000    0.34    0.00    0.00      0   -9.90   -9.00
    27     4  2017    13    2     0.000     0.000     0.000     0.000     0.000    0.35    0.00    0.00      0   -9.90   -9.00
    28     4  2017    14    2     0.000     0.000     0.000     0.000     0.000    0.36    0.00    0.00      0   -9.90   -9.00
    29     4  2017    15    2     0.000     0.000     0.000     0.000     0.000    0.38    0.00    0.00      0   -9.90   -9.00
    30     4  2017    16    2     0.000     0.000     0.000     0.000     0.000    0.39    0.00    0.00      0   -9.90   -9.00
     1     5  2017    17    2     0.000     0.000     0.000     0.000     0.000    0.40    0.00    0.00      0   -9.90   -9.00
     2     5  2017    18    2     0.000     0.000     0.000     0.000     0.000    0.41    0.00    0.00      0   -9.90   -9.00
     3     5  2017    19    2     0.000     0.000     0.000     0.000     0.000    0.42    0.00    0.00      0   -9.90   -9.00
     4     5  2017    20    2     0.000     0.000     0.000     0.000     0.000    0.43    0.00    0.00      0   -9.90   -9.00
     5     5  2017    21    2     0.000     0.000     0.000     0.000     0.000    0.44    0.00    0.00      0   -9.90   -9.00
     6     5  2017    22    2     0.000     0.000     0.000     0.000     0.000    0.45    0.00    0.00      0   -9.90   -9.00
     7     5  2017    23    2     0.000     0.000     0.000     0.000     0.000    0.46    0.00    0.00      0   -9.90   -9.00
     8     5  2017    24    2     0.000     0.000     0.000     0.000     0.000    0.47    0.00    0.00      0   -9.90   -9.00
     9     5  2017    25    2     0.000     0.000     0.000     0.000     0.000    0.48    0.00    0.00      0   -9.90   -9.00
    10     5  2017    26    2     0.000     0.000     0.000     0.000     0.000    0.49    0.00    0.00      0   -9.90   -9.00
    11     5  2017    27    2     0.000     0.000     0.000     0.000     0.000    0.50    0.00    0.00      0   -9.90   -9.00
    12     5  2017    28    2     0.000     0.000     0.000     0.000     0.000    0.51    0.00    0.00      0   -9.90   -9.00
    13     5  2017    29    2     0.000     0.000     0.000     0.000     0.000    0.51    0.00    0.00      0   -9.90   -9.00
    14     5  2017    30    2     0.000     0.000     0.000     0.000     0.000    0.52    0.00    0.00      0   -9.90   -9.00
    15     5  2017    31    2     0.000     0.000     0.000     0.000     0.000    0.53    0.00    0.00      0   -9.90   -9.00
    16     5  2017    32    2     0.000     0.000     0.000     0.000     0.000    0.54    0.00    0.00      0   -9.90   -9.00
    17     5  2017    33    2     0.000     0.000     0.000     0.000     0.000    0.54    0.00    0.00      0   -9.90   -9.00
    18     5  2017    34    2     0.000     0.000     0.000     0.000     0.000    0.55    0.00    0.00      0   -9.90   -9.00
    19     5  2017    35    2     0.000     0.000     0.000     0.000     0.000    0.56    0.00    0.00      0   -9.90   -9.00
    20     5  2017    36    2     0.000     0.000     0.000     0.000     0.000    0.57    0.00    0.00      0   -9.90   -9.00
    21     5  2017    37    2     0.000     0.000     0.000     0.000     0.000    0.58    0.00    0.00      0   -9.90   -9.00
    22     5  2017    38    2     0.000     0.000     0.000     0.000     0.000    0.59    0.00    0.00      0   -9.90   -9.00
    23     5  2017    39    2     0.000     0.000     0.000     0.000     0.000    0.60    0.00    0.00      0   -9.90   -9.00
    24     5  2017    40    2     0.000     0.000     0.000     0.000     0.000    0.61    0.00    0.00      0   -9.90   -9.00
    25     5  2017    41    2     0.000     0.000     0.000     0.000     0.000    0.61    0.00    0.00      0   -9.90   -9.00
    26     5  2017    42    2     0.000     0.000     0.000     0.000     0.000    0.62    0.00    0.00      0   -9.90   -9.00
    27     5  2017    43    2     0.000     0.000     0.000     0.000     0.000    0.63    0.00    0.00      0   -9.90   -9.00
    28     5  2017    44    2     0.000     0.000     0.000     0.000     0.000    0.64    0.00    0.00      0   -9.90   -9.00
    29     5  2017    45    2     0.000     0.000     0.000     0.000     0.000    0.65    0.00    0.00      0   -9.90   -9.00
    30     5  2017    46    2     0.000     0.000     0.000     0.000     0.000    0.65    0.00    0.00      0   -9.90   -9.00
    31     5  2017    47    2     0.000     0.000     0.000     0.000     0.000    0.66    0.00    0.00      0   -9.90   -9.00
     1     6  2017    48    2     0.000     0.000     0.000     0.000     0.000    0.67    0.00    0.00      0   -9.90   -9.00
     2     6  2017    49    2     0.000     0.000     0.000     0.000     0.000    0.68    0.00    0.00      0   -9.90   -9.00
     3     6  2017    50    2     0.000     0.000     0.000     0.000     0.000    0.68    0.00    0.00      0   -9.90   -9.00
     4     6  2017    51    2     0.000     0.000     0.000     0.000     0.000    0.69    0.00    0.00      0   -9.90   -9.00
     5     6  2017    52    2     0.000     0.000     0.000     0.000     0.000    0.70    0.00    0.00      0   -9.90   -9.00
     6     6  2017    53    2     0.000     0.000     0.000     0.000     0.000    0.71    0.00    0.00      0   -9.90   -9.00
     7     6  2017    54    2     0.000     0.000     0.000     0.000     0.000    0.72    0.00    0.00      0   -9.90   -9.00
     8     6  2017    55    2     0.000     0.000     0.000     0.000     0.000    0.73    0.00    0.00      0   -9.90   -9.00
     9     6  2017    56    2     0.000     0.000     0.000     0.000     0.000    0.73    0.00    0.00      0   -9.90   -9.00
    10     6  2017    57    2     0.000     0.000     0.000     0.000     0.000    0.74    0.00    0.00      0   -9.90   -9.00
    11     6  2017    58    2     0.000     0.000     0.000     0.000     0.000    0.75    0.00    0.00      0   -9.90   -9.00
    12     6  2017    59    2     0.000     0.000     0.000     0.000     0.000    0.76    0.00    0.00      0   -9.90   -9.00
    13     6  2017    60    2     0.000     0.000     0.000     0.000     0.000    0.77    0.00    0.00      0   -9.90   -9.00
    14     6  2017    61    2     0.000     0.000     0.000     0.000     0.000    0.78    0.00    0.00      0   -9.90   -9.00
    15     6  2017    62    2     0.000     0.000     0.000     0.000     0.000    0.79    0.00    0.00      0   -9.90   -9.00
    16     6  2017    63    2     0.000     0.000     0.000     0.000     0.000    0.80    0.00    0.00      0   -9.90   -9.00
    17     6  2017    64    2     0.000     0.000     0.000     0.000     0.000    0.81    0.00    0.00      0   -9.90   -9.00
    18     6  2017    65    2     0.000     0.000     0.000     0.000     0.000    0.82    0.00    0.00      0   -9.90   -9.00
    19     6  2017    66    2     0.000     0.000     0.000     0.000     0.000    0.83    0.00    0.00      0   -9.90   -9.00
    20     6  2017    67    2     0.000     0.000     0.000     0.000     0.000    0.83    0.00    0.00      0   -9.90   -9.00
    21     6  2017    68    2     0.000     0.000     0.000     0.000     0.000    0.84    0.00    0.00      0   -9.90   -9.00
    22     6  2017    69    2     0.000     0.000     0.000     0.000     0.000    0.85    0.00    0.00      0   -9.90   -9.00
    23     6  2017    70    2     0.000     0.000     0.000     0.000     0.000    0.86    0.00    0.00      0   -9.90   -9.00
    24     6  2017    71    2     0.000     0.000     0.000     0.000     0.000    0.87    0.00    0.00      0   -9.90   -9.00
    25     6  2017    72    2     0.000     0.000     0.000     0.000     0.000    0.88    0.00    0.00      0   -9.90   -9.00
    26     6  2017    73    2     0.000     0.000     0.000     0.000     0.000    0.88    0.00    0.00      0   -9.90   -9.00
    27     6  2017    74    3     0.000     0.000     0.000     0.000     0.000    0.89    0.00    0.00      0   -9.90   -9.00
    28     6  2017    75    3     0.000     0.000     0.000     0.000     0.000    0.90    0.00    0.00      0   -9.90   -9.00
    29     6  2017    76    3     0.000     0.000     0.000     0.000     0.000    0.90    0.00    0.00      0   -9.90   -9.00
    30     6  2017    77    3     0.000     0.000     0.000     0.000     0.000    0.91    0.00    0.00      0   -9.90   -9.00
     1     7  2017    78    3     0.000     0.000     0.000     0.000     0.000    0.92    0.00    0.00      0   -9.90   -9.00
     2     7  2017    79    3     0.000     0.000     0.000     0.000     0.000    0.92    0.00    0.00      0   -9.90   -9.00
     3     7  2017    80    3     0.000     0.000     0.000     0.000     0.000    0.93    0.00    0.00      0   -9.90   -9.00
     4     7  2017    81    3     0.000     0.000     0.000     0.000     0.000    0.93    0.00    0.00      0   -9.90   -9.00
     5     7  2017    82    3     0.000     0.000     0.000     0.000     0.000    0.94    0.00    0.00      0   -9.90   -9.00
     6     7  2017    83    3     0.000     0.000     0.000     0.000     0.000    0.95    0.00    0.00      0   -9.90   -9.00
     7     7  2017    84    3     0.000     0.000     0.000     0.000     0.000    0.95    0.00    0.00      0   -9.90   -9.00
     8     7  2017    85    3     0.000     0.000     0.000     0.000     0.000    0.96    0.00    0.00      0   -9.90   -9.00
     9     7  2017    86    3     0.000     0.000     0.000     0.000     0.000    0.96    0.00    0.00      0   -9.90   -9.00
    10     7  2017    87    3     0.000     0.000     0.000     0.000     0.000    0.97    0.00    0.00      0   -9.90   -9.00
    11     7  2017    88    3     0.000     0.000     0.000     0.000     0.000    0.98    0.00    0.00      0   -9.90   -9.00
    12     7  2017    89    3     0.000     0.000     0.000     0.000     0.000    0.98    0.00    0.00      0   -9.90   -9.00
    13     7  2017    90    3     0.000     0.000     0.000     0.000     0.000    0.99    0.00    0.00      0   -9.90   -9.00
    14     7  2017    91    3     0.000     0.000     0.000     0.000     0.000    1.00    0.00    0.00      0   -9.90   -9.00
    15     7  2017    92    3     0.000     0.000     0.000     0.000     0.000    1.00    0.00    0.00      0   -9.90   -9.00
    16     7  2017    93    3     0.000     0.000     0.000     0.000     0.000    1.00    0.00    0.00      0   -9.90   -9.00
    17     7  2017    94    3     0.000     0.000     0.000     0.000     0.000    1.00    0.00    0.00      0   -9.90   -9.00
    18     7  2017    95    3     0.000     0.000     0.000     0.000     0.000    1.00    0.00    0.00      0   -9.90   -9.00
    19     7  2017    96    3     0.000     0.000     0.000     0.000     0.000    1.00    0.00    0.00      0   -9.90   -9.00
    20     7  2017    97    4     0.000     0.000     0.000     0.000     0.000    1.00    0.00    0.00      0   -9.90   -9.00
    21     7  2017    98    4     0.000     0.000     0.000     0.000     0.000    1.00    0.00    0.00      0   -9.90   -9.00
    22     7  2017    99    4     0.000     0.000     0.000     0.000     0.000    1.00    0.00    0.00      0   -9.90   -9.00
    23     7  2017   100    4     0.000     0.000     0.000     0.000     0.000    1.00    0.00    0.00      0   -9.90   -9.00
    24     7  2017   101    4     0.000     0.000     0.000     0.000     0.000    1.00    0.00    0.00      0   -9.90   -9.00
    25     7  2017   102    4     0.000     0.000     0.000     0.000     0.000    1.00    0.00    0.00      0   -9.90   -9.00
    26     7  2017   103    4     0.000     0.000     0.000     0.000     0.000    1.00    0.00    0.00      0   -9.90   -9.00
    27     7  2017   104    4     0.000     0.000     0.000     0.000     0.000    1.00    0.00    0.00      0   -9.90   -9.00
    28     7  2017   105    4     0.000     0.000     0.000     0.000     0.000    1.00    0.00    0.00      0   -9.90   -9.00
    29     7  2017   106    4     0.000     0.000     0.000     0.000     0.000    1.00    0.00    0.00      0   -9.90   -9.00
    30     7  2017   107    4     0.000     0.000     0.000     0.000     0.000    1.00    0.00    0.00      0   -9.90   -9.00
    31     7  2017   108    4     0.000     0.000     0.000     0.000     0.000    1.00    0.00    0.00      0   -9.90   -9.00
     1     8  2017   109    4     0.000     0.000     0.000     0.000     0.000    1.00    0.00    0.00      0   -9.90   -9.00
     2     8  2017   110    4     0.000     0.000     0.000     0.000     0.000    1.00    0.00    0.00      0   -9.90   -9.00
     3     8  2017   111    4     0.000     0.000     0.000     0.000     0.000    1.00    0.00    0.00      0   -9.90   -9.00
     4     8  2017   112    4     0.000     0.000     0.000     0.000     0.000    1.00    0.00    0.00      0   -9.90   -9.00
     5     8  2017   113    4     0.000     0.000     0.000     0.000     0.000    1.00    0.00    0.00      0   -9.90   -9.00
     6     8  2017   114    4     0.000     0.000     0.000     0.000     0.000    1.00    0.00    0.00      0   -9.90   -9.00
     7     8  2017   115    4     0.000     0.000     0.000     0.000     0.000    1.00    0.00    0.00      0   -9.90   -9.00
     8     8  2017   116    4     0.000     0.000     0.000     0.000     0.000    1.00    0.00    0.00      0   -9.90   -9.00
     9     8  2017   117    4     0.000     0.000     0.000     0.000     0.000    1.00    0.00    0.00      0   -9.90   -9.00
    10     8  2017   118    4     0.000     0.000     0.000     0.000     0.000    1.00    0.00    0.00      0   -9.90   -9.00
    11     8  2017   119    4     0.000     0.000     0.000     0.000     0.000    1.00    0.00    0.00      0   -9.90   -9.00
    12     8  2017   120    4     0.000     0.000     0.000     0.000     0.000    1.00    0.00    0.00      0   -9.90   -9.00
    13     8  2017   121    4     0.000     0.000     0.000     0.000     0.000    1.00    0.00    0.00      0   -9.90   -9.00
    14     8  2017   122    4     0.000     0.000     0.000     0.000     0.000    1.00    0.00    0.00      0   -9.90   -9.00
    15     8  2017   123    4     0.000     0.000     0.000     0.000     0.000    1.00    0.00    0.00      0   -9.90   -9.00
    16     8  2017   124    4     0.000     0.000     0.000     0.000     0.000    1.00    0.00    0.00      0   -9.90   -9.00
    17     8  2017   125    4     0.000     0.000     0.000     0.000     0.000    1.00    0.00    0.00      0   -9.90   -9.00
    18     8  2017   126    4     0.000     0.000     0.000     0.000     0.000    1.00    0.00    0.00      0   -9.90   -9.00
    19     8  2017   127    4     0.000     0.000     0.000     0.000     0.000    1.00    0.00    0.00      0   -9.90   -9.00
    20     8  2017   128    4     0.000     0.000     0.000     0.000     0.000    1.00    0.00    0.00      0   -9.90   -9.00
    21     8  2017   129    4     0.000     0.000     0.000     0.000     0.000    1.00    0.00    0.00      0   -9.90   -9.00
    22     8  2017   130    4     0.000     0.000     0.000     0.000     0.000    1.00    0.00    0.00      0   -9.90   -9.00
    23     8  2017   131    4     0.000     0.000     0.000     0.000     0.000    1.00    0.00    0.00      0   -9.90   -9.00

Legend

DAP          : Days after planting
Stage        : 0: before/after planting
Stage        : 1: emergence or transplant recovery
Stage        : 2: vegetative stage
Stage        : 3: flowering
Stage        : 4: yield formation and ripening
SaltIn       : Salt infiltrated in the soil profile
SaltOut      : Salt drained out of the soil profile
SaltUp       : Salt moved upward from the groundwater table
SaltTot      : Salt content in the total soil profile (layer: 0.00 - 1.20 m)
SaltZ        : Salt content in the effective root zone
Z            : Effective rooting depth
ECe          : Electrical conductivity of the saturated soil-paste extract from the root zone
ECsw         : Electrical conductivity of the soil water in the root zone
StSalt       : Salinity stress
Zgwt         : Depth of the groundwater table (-9.90 if absent)
ECgw         : Electrical conductivity of the groundwater
