AquaCrop 6.1 (May 2018) - Output created on (date) : 12/04/2022   at (time) : 17:58:56
Simulation run

    RunNr     Day1   Month1    Year1     Rain      ETo       GD     CO2      Irri   Infilt   Runoff    Drain   Upflow        E     E/Ex       Tr      TrW   Tr/Trx    SaltIn   SaltOut    SaltUp  SaltProf     Cycle   SaltStr  FertStr  WeedStr  TempStr   ExpStr   StoStr  BioMass  Brelative   HI     Yield     WPet     DayN   MonthN    YearN
                                           mm       mm    °C.day    ppm        mm       mm       mm       mm       mm       mm        %       mm       mm        %    ton/ha    ton/ha    ton/ha    ton/ha      days       %        %        %        %        %        %    ton/ha        %       %    ton/ha    kg/m3
        1       15        4     2017     1203      446     1566   404.00      154     1203        0      971        0      229       81      153      153      100     0.000     0.000     0.000     0.000      123        0        0        0       10        0        0    17.745       99     30.0    5.324     1.40       23        8     2017

Légende

RunNr      Number simulation run
Day1       First day of simulation run
Month1     First month of simulation run
Year1      First year of simulation run
Rain       Rainfall
ETo        Reference evapotranspiration
GD         Growing degrees
CO2        Atmospheric CO2 concentration
Irri       Water applied by irrigation OR Net irrigation requirement
Infilt     Infiltrated water in soil profile
Runoff     Water lost by surface runoff
Drain      Water drained out of the soil profile
Upflow     Water moved upward by capillary rise
E          Soil evaporation
E/Ex       Relative soil evaporation (100 E/Ex)
Tr         Total transpiration of crop and weeds
TrW        Crop transpiration in weed infested field
Tr/Trx     Relative total transpiration (100 Tr/Trx)
SaltIn     Salt infiltrated in the soil profile
SaltOut    Salt drained out of the soil profile
SaltUp     Salt moved upward by capillary rise from groundwater table
SaltProf   Salt stored in the soil profile
Cycle      Length of crop cycle: from germination to maturity (or early senescence)
SaltStr    Average soil salinity stress
FertStr    Average soil fertility stress
WeedStr    Average relative cover of weeds
TempStr    Average temperature stress (affecting crop transpiration)
ExpStr     Average leaf expansion stress
StoStr     Average stomatal stress
Biomass    Cumulative biomass produced
Brelative  Relative biomass (Reference: no water, no soil fertility, no soil salinity stress, no weed infestation)
HI         Harvest Index adjusted for failure of pollination, inadequate photosynthesis and water stress
Yield      Yield (HI x Biomass)
WPet       ET Water Productivity for yield part (kg yield produced per m3 water evapotranspired)
DayN       Last day of simulation run
MonthN     Last month of simulation run
YearN      Last year of simulation run
