AquaCrop 6.1 (May 2018) - Output created on (date) : 12/04/2022   at (time) : 17:58:56
Crop development and production

** Run number:  1
   Day Month  Year   DAP Stage    GD       Z     StExp  StSto  StSen StSalt StWeed   CC      CCw     StTr  Kc(Tr)     Trx      Tr       TrW  Tr/Trx   WP    Biomass     HI  YieldPart  Brelative   WPet
                                °C-day     m       %      %      %      %      %      %       %       %       -        mm       mm       mm    %     g/m2    ton/ha      %    ton/ha       %      kg/m3
    15     4  2017     1    1     8.7    0.30     -9     -9     -9      0     -9     0.0     0.0      0    -9.00      0.0      0.0      0.0   100    34.6     0.000    -9.9    0.000       -9      0.00
    16     4  2017     2    1    10.4    0.30     -9     -9     -9      0     -9     0.0     0.0      0    -9.00      0.0      0.0      0.0   100    34.6     0.000    -9.9    0.000       -9      0.00
    17     4  2017     3    1    11.6    0.30     -9     -9     -9      0     -9     0.0     0.0      0    -9.00      0.0      0.0      0.0   100    34.6     0.000    -9.9    0.000       -9      0.00
    18     4  2017     4    1    10.9    0.30     -9     -9     -9      0     -9     0.0     0.0      0    -9.00      0.0      0.0      0.0   100    34.6     0.000    -9.9    0.000       -9      0.00
    19     4  2017     5    1    11.1    0.30     -9     -9     -9      0     -9     0.0     0.0      0    -9.00      0.0      0.0      0.0   100    34.6     0.000    -9.9    0.000       -9      0.00
    20     4  2017     6    1    11.1    0.30     -9     -9     -9      0     -9     0.0     0.0      0    -9.00      0.0      0.0      0.0   100    34.6     0.000    -9.9    0.000       -9      0.00
    21     4  2017     7    1    11.9    0.30     -9     -9     -9      0     -9     0.0     0.0      0    -9.00      0.0      0.0      0.0   100    34.6     0.000    -9.9    0.000       -9      0.00
    22     4  2017     8    1    12.1    0.30     -9      0      0      0      0     0.6     0.6      9     0.01      0.1      0.1      0.1   100    34.6     0.003    -9.9    0.000      100      0.00
    23     4  2017     9    2    13.2    0.30     -9      0      0      0      0     0.7     0.7      5     0.01      0.1      0.1      0.1   100    34.6     0.008    -9.9    0.000      100      0.00
    24     4  2017    10    2    13.8    0.31     -9      0      0      0      0     0.8     0.8      4     0.01      0.1      0.1      0.1   100    34.6     0.012    -9.9    0.000      100      0.00
    25     4  2017    11    2    13.3    0.32      1      0      0      0      0     0.9     0.9      5     0.02      0.1      0.1      0.1   100    34.6     0.017    -9.9    0.000      100      0.00
    26     4  2017    12    2    12.9    0.34      1      0      0      0      0     1.0     1.0      6     0.02      0.1      0.1      0.1   100    34.6     0.023    -9.9    0.000      100      0.00
    27     4  2017    13    2    12.8    0.35      1      0      0      0      0     1.1     1.1      6     0.02      0.1      0.1      0.1   100    34.6     0.030    -9.9    0.000      100      0.00
    28     4  2017    14    2    14.3    0.36      0      0      0      0      0     1.3     1.3      3     0.02      0.1      0.1      0.1   100    34.6     0.037    -9.9    0.000      100      0.00
    29     4  2017    15    2    13.4    0.38      0      0      0      0      0     1.4     1.4      5     0.03      0.1      0.1      0.1   100    34.6     0.045    -9.9    0.000      100      0.00
    30     4  2017    16    2    11.1    0.39      0      0      0      0      0     1.6     1.6     14     0.03      0.1      0.1      0.1   100    34.6     0.054    -9.9    0.000      100      0.00
     1     5  2017    17    2    11.6    0.40      0      0      0      0      0     1.8     1.8     11     0.03      0.1      0.1      0.1   100    34.6     0.063    -9.9    0.000      100      0.00
     2     5  2017    18    2    11.6    0.41      0      0      0      0      0     1.9     1.9     11     0.03      0.2      0.2      0.2   100    34.6     0.074    -9.9    0.000      100      0.00
     3     5  2017    19    2    13.1    0.42      3      0      0      0      0     2.2     2.2      6     0.04      0.3      0.3      0.3   100    34.6     0.086    -9.9    0.000      100      0.00
     4     5  2017    20    2    13.4    0.43      3      0      0      0      0     2.5     2.5      5     0.04      0.3      0.3      0.3   100    34.6     0.101    -9.9    0.000       99      0.00
     5     5  2017    21    2    11.9    0.44      1      0      0      0      0     2.7     2.7      9     0.05      0.3      0.3      0.3   100    34.6     0.116    -9.9    0.000       99      0.00
     6     5  2017    22    2    11.9    0.45      0      0      0      0      0     3.0     3.0     10     0.05      0.3      0.3      0.3   100    34.6     0.133    -9.9    0.000       99      0.00
     7     5  2017    23    2    11.3    0.46      0      0      0      0      0     3.4     3.4     13     0.06      0.2      0.2      0.2   100    34.6     0.150    -9.9    0.000       99      0.00
     8     5  2017    24    2    12.6    0.47      0      0      0      0      0     3.8     3.8      7     0.07      0.3      0.3      0.3   100    34.6     0.172    -9.9    0.000       99      0.00
     9     5  2017    25    2    12.7    0.48      0      0      0      0      0     4.2     4.2      7     0.07      0.3      0.3      0.3   100    34.6     0.196    -9.9    0.000       99      0.00
    10     5  2017    26    2    11.4    0.49      0      0      0      0      0     4.7     4.7     12     0.08      0.2      0.2      0.2   100    34.6     0.220    -9.9    0.000       99      0.00
    11     5  2017    27    2    12.5    0.50      0      0      0      0      0     5.3     5.3      7     0.09      0.3      0.3      0.3   100    34.6     0.250    -9.9    0.000       99      0.00
    12     5  2017    28    2    12.1    0.51      0      0      0      0      0     5.9     5.9      9     0.10      0.4      0.4      0.4   100    34.6     0.282    -9.9    0.000       99      0.00
    13     5  2017    29    2    11.6    0.51      0      0      0      0      0     6.5     6.5     11     0.11      0.3      0.3      0.3   100    34.6     0.316    -9.9    0.000       99      0.00
    14     5  2017    30    2    10.9    0.52      0      0      0      0      0     7.2     7.2     15     0.12      0.3      0.3      0.3   100    34.6     0.352    -9.9    0.000       99      0.00
    15     5  2017    31    2    10.4    0.53      0      0      0      0      0     7.9     7.9     19     0.13      0.2      0.2      0.2   100    34.6     0.390    -9.9    0.000       99      0.00
    16     5  2017    32    2    10.0    0.54      0      0      0      0      0     8.6     8.6     22     0.15      0.2      0.2      0.2   100    34.6     0.430    -9.9    0.000       99      0.00
    17     5  2017    33    2     9.6    0.54      0      0      0      0      0     9.4     9.4     26     0.16      0.2      0.2      0.2   100    34.6     0.471    -9.9    0.000       99      0.00
    18     5  2017    34    2    11.4    0.55      0      0      0      0      0    10.4    10.4     12     0.18      0.6      0.6      0.6   100    34.6     0.524    -9.9    0.000       99      0.00
    19     5  2017    35    2    11.8    0.56      0      0      0      0      0    11.6    11.6     10     0.19      1.0      1.0      1.0   100    34.6     0.584    -9.9    0.000       99      0.00
    20     5  2017    36    2    13.3    0.57      0      0      0      0      0    13.1    13.1      5     0.22      1.3      1.3      1.3   100    34.6     0.656    -9.9    0.000       99      0.00
    21     5  2017    37    2    13.1    0.58      0      0      0      0      0    14.7    14.7      5     0.24      1.0      1.0      1.0   100    34.6     0.735    -9.9    0.000       99      0.00
    22     5  2017    38    2    11.7    0.59      0      0      0      0      0    16.4    16.4     11     0.27      0.8      0.8      0.8   100    34.6     0.817    -9.9    0.000       99      0.00
    23     5  2017    39    2    11.9    0.60      0      0      0      0      0    18.2    18.2      9     0.29      1.0      1.0      1.0   100    34.6     0.909    -9.9    0.000       99      0.00
    24     5  2017    40    2    12.3    0.61      0      0      0      0      0    20.4    20.4      8     0.32      1.6      1.6      1.6   100    34.6     1.012    -9.9    0.000       99      0.00
    25     5  2017    41    2    12.6    0.61      4      0      0      0      0    22.7    22.7      7     0.36      2.6      2.6      2.6   100    34.6     1.127    -9.9    0.000       99      0.00
    26     5  2017    42    2    12.8    0.62      2      0      0      0      0    25.5    25.5      6     0.39      2.7      2.7      2.7   100    34.6     1.255    -9.9    0.000       99      0.00
    27     5  2017    43    2    12.4    0.63      0      0      0      0      0    28.5    28.5      8     0.43      2.0      2.0      2.0   100    34.6     1.392    -9.9    0.000       99      0.00
    28     5  2017    44    2    11.3    0.64      0      0      0      0      0    31.5    31.5     13     0.47      1.5      1.5      1.5   100    34.6     1.535    -9.9    0.000       99      0.00
    29     5  2017    45    2    10.6    0.65      0      0      0      0      0    34.7    34.7     17     0.51      1.7      1.7      1.7   100    34.6     1.681    -9.9    0.000       99      0.00
    30     5  2017    46    2    11.6    0.65      0      0      0      0      0    38.5    38.5     11     0.55      2.7      2.7      2.7   100    34.6     1.851    -9.9    0.000       99      0.00
    31     5  2017    47    2    11.4    0.66      0      0      0      0      0    42.0    42.0     12     0.59      2.3      2.3      2.3   100    34.6     2.031    -9.9    0.000       99      0.00
     1     6  2017    48    2    10.9    0.67      0      0      0      0      0    45.1    45.1     15     0.62      2.3      2.3      2.3   100    34.6     2.214    -9.9    0.000       99      0.00
     2     6  2017    49    2    10.2    0.68      0      0      0      0      0    47.7    47.7     20     0.65      1.8      1.8      1.8   100    34.6     2.393    -9.9    0.000       99      0.00
     3     6  2017    50    2    11.2    0.68      0      0      0      0      0    50.3    50.3     13     0.68      2.3      2.3      2.3   100    34.6     2.595    -9.9    0.000       99      0.00
     4     6  2017    51    2    12.3    0.69      0      0      0      0      0    52.8    52.8      8     0.70      2.6      2.6      2.6   100    34.6     2.818    -9.9    0.000       99      0.00
     5     6  2017    52    2    12.5    0.70      0      0      0      0      0    55.1    55.1      7     0.72      2.6      2.6      2.6   100    34.6     3.050    -9.9    0.000       99      0.00
     6     6  2017    53    2    12.1    0.71      0      0      0      0      0    57.1    57.1      9     0.74      2.4      2.4      2.4   100    34.6     3.284    -9.9    0.000       99      0.00
     7     6  2017    54    2    13.0    0.72      0      0      0      0      0    59.1    59.1      6     0.76      3.0      3.0      3.0   100    34.6     3.531    -9.9    0.000       99      0.00
     8     6  2017    55    2    13.9    0.73      0      0      0      0      0    60.9    60.9      4     0.77      4.1      4.1      4.1   100    34.6     3.789    -9.9    0.000       99      0.00
     9     6  2017    56    2    14.0    0.73      0      0      0      0      0    62.5    62.5      3     0.79      3.9      3.9      3.9   100    34.6     4.052    -9.9    0.000       99      0.00
    10     6  2017    57    2    14.6    0.74      0      0      0      0      0    64.0    64.0      3     0.80      3.7      3.7      3.7   100    34.6     4.322    -9.9    0.000       99      0.00
    11     6  2017    58    2    14.3    0.75      0      0      0      0      0    65.3    65.3      3     0.81      4.2      4.2      4.2   100    34.6     4.595    -9.9    0.000       99      0.00
    12     6  2017    59    2    15.1    0.76      0      0      0      0      0    66.4    66.4      0     0.82      5.1      5.1      5.1   100    34.6     4.879    -9.9    0.000       99      0.00
    13     6  2017    60    2    15.4    0.77      0      0      0      0      0    67.5    67.5      0     0.83      4.7      4.7      4.7   100    34.6     5.166    -9.9    0.000       99      0.00
    14     6  2017    61    2    15.6    0.78      0      0      0      0      0    68.4    68.4      0     0.84      4.4      4.4      4.4   100    34.6     5.455    -9.9    0.000       99      0.00
    15     6  2017    62    2    14.9    0.79      0      0      0      0      0    69.2    69.2      2     0.84      3.1      3.1      3.1   100    34.6     5.741    -9.9    0.000       99      0.00
    16     6  2017    63    2    13.6    0.80      0      0      0      0      0    69.8    69.8      4     0.85      2.6      2.6      2.6   100    34.6     6.021    -9.9    0.000       99      0.00
    17     6  2017    64    2    13.9    0.81      0      0      0      0      0    70.3    70.3      4     0.85      3.1      3.1      3.1   100    34.6     6.305    -9.9    0.000       99      0.00
    18     6  2017    65    2    14.6    0.82      0      0      0      0      0    70.8    70.8      2     0.86      4.1      4.1      4.1   100    34.6     6.594    -9.9    0.000       99      0.00
    19     6  2017    66    2    13.8    0.83      0      0      0      0      0    71.3    71.3      4     0.86      3.1      3.1      3.1   100    34.6     6.880    -9.9    0.000       99      0.00
    20     6  2017    67    2    12.9    0.83      0      0      0      0      0    71.6    71.6      6     0.86      2.8      2.8      2.8   100    34.6     7.161    -9.9    0.000       99      0.00
    21     6  2017    68    2    11.9    0.84      0      0      0      0      0    71.9    71.9     10     0.86      1.9      1.9      1.9   100    34.6     7.431    -9.9    0.000       99      0.00
    22     6  2017    69    2    14.1    0.85      0      0      0      0      0    72.2    72.2      3     0.87      4.5      4.5      4.5   100    34.6     7.721    -9.9    0.000       99      0.00
    23     6  2017    70    2    14.9    0.86      0      0      0      0      0    72.5    72.5      2     0.87      4.2      4.2      4.2   100    34.6     8.015    -9.9    0.000       99      0.00
    24     6  2017    71    2    15.1    0.87      0      0      0      0      0    72.7    72.7      0     0.87      3.7      3.7      3.7   100    34.6     8.317    -9.9    0.000       99      0.00
    25     6  2017    72    2    12.6    0.88      0      0      0      0      0    72.9    72.9      7     0.87      1.9      1.9      1.9   100    34.6     8.597    -9.9    0.000       99      0.00
    26     6  2017    73    2    11.9    0.88      0      0      0      0      0    73.0    73.0     10     0.87      1.4      1.4      1.4   100    34.6     8.870    -9.9    0.000       99      0.00
    27     6  2017    74    3    12.7    0.89      0      0      0      0      0    73.2    73.2      7     0.87      1.8      1.8      1.8   100    34.6     9.152    -9.9    0.000       99      0.00
    28     6  2017    75    3    11.3    0.90      0      0      0      0      0    73.3    73.3     13     0.88      0.8      0.8      0.8   100    34.6     9.416    -9.9    0.000       99      0.00
    29     6  2017    76    3    12.4    0.90      0      0      0      0      0    73.4    73.4      8     0.88      1.7      1.7      1.7   100    34.6     9.695    -9.9    0.000       99      0.00
    30     6  2017    77    3    11.4    0.91      0      0      0      0      0    73.5    73.5     12     0.88      1.0      1.0      1.0   100    34.6     9.961     1.5    0.152       99      0.05
     1     7  2017    78    3     9.6    0.92      0      0      0      0      0    74.2    74.2     25     0.88      1.1      1.1      1.1   100    34.6    10.188     1.7    0.178       99      0.06
     2     7  2017    79    3     9.3    0.92     -9      0      0      0      0    74.2    74.2     29     0.88      1.0      1.0      1.0   100    34.6    10.405     2.0    0.208       99      0.06
     3     7  2017    80    3     9.8    0.93     -9      0      0      0      0    74.3    74.3     24     0.88      1.1      1.1      1.1   100    34.6    10.637     2.3    0.244       99      0.08
     4     7  2017    81    3    10.6    0.93     -9      0      0      0      0    74.4    74.4     17     0.88      0.8      0.8      0.8   100    34.6    10.888     2.6    0.286       99      0.09
     5     7  2017    82    3    11.7    0.94     -9      0      0      0      0    74.4    74.4     11     0.88      1.4      1.4      1.4   100    34.6    11.160     3.0    0.334       99      0.10
     6     7  2017    83    3    10.4    0.95     -9      0      0      0      0    74.5    74.5     18     0.88      0.6      0.6      0.6   100    34.6    11.407     3.4    0.389       99      0.12
     7     7  2017    84    3    10.3    0.95     -9      0      0      0      0    74.5    74.5     20     0.87      0.7      0.7      0.7   100    34.6    11.649     3.9    0.452       99      0.14
     8     7  2017    85    3    10.8    0.96     -9      0      0      0      0    74.6    74.6     16     0.87      1.2      1.2      1.2   100    34.6    11.903     4.4    0.524       99      0.16
     9     7  2017    86    3    11.0    0.96     -9      0      0      0      0    74.6    74.6     15     0.87      1.0      1.0      1.0   100    34.6    12.160     5.0    0.605       99      0.18
    10     7  2017    87    3    10.6    0.97     -9      0      0      0      0    74.7    74.7     17     0.87      0.6      0.6      0.6   100    34.6    12.409     5.6    0.696       99      0.21
    11     7  2017    88    3    10.9    0.98     -9      0      0      0      0    74.7    74.7     15     0.87      0.7      0.7      0.7   100    34.6    12.664     6.3    0.794       99      0.24
    12     7  2017    89    3    11.0    0.98     -9      0      0      0      0    74.7    74.7     15     0.87      0.5      0.5      0.5   100    34.6    12.920     6.9    0.895       99      0.27
    13     7  2017    90    3    10.9    0.99     -9      0      0      0      0    74.7    74.7     16     0.87      0.5      0.5      0.5   100    34.6    13.173     7.6    1.000       99      0.30
    14     7  2017    91    3    10.7    1.00     -9      0      0      0      0    74.8    74.8     17     0.86      0.6      0.6      0.6   100    34.6    13.423     8.2    1.107       99      0.33
    15     7  2017    92    3    11.6    1.00     -9      0     -9      0      0    74.4    74.4     11     0.84      1.7      1.7      1.7   100    34.6    13.682     8.9    1.219       99      0.36
    16     7  2017    93    3    10.6    1.00     -9      0     -9      0      0    74.2    74.2     18     0.83      1.4      1.4      1.4   100    34.6    13.918     9.6    1.331       99      0.39
    17     7  2017    94    3    11.5    1.00     -9      0     -9      0      0    73.8    73.8     12     0.81      1.9      1.9      1.9   100    34.6    14.165    10.2    1.448       99      0.42
    18     7  2017    95    3    12.8    1.00     -9      0     -9      0      0    73.4    73.4      6     0.79      2.4      2.4      2.4   100    34.6    14.420    10.9    1.570       99      0.46
    19     7  2017    96    3    11.4    1.00     -9      0     -9      0      0    73.1    73.1     12     0.77      0.9      0.9      0.9   100    34.6    14.653    11.5    1.692       99      0.49
    20     7  2017    97    4    11.9    1.00     -9      0     -9      0      0    72.6    72.6      9     0.75      1.1      1.1      1.1   100    34.6    14.887    12.2    1.817       99      0.52
    21     7  2017    98    4    11.7    1.00     -9      0     -9      0      0    72.2    72.2     11     0.72      1.0      1.0      1.0   100    34.6    15.111    12.9    1.944       99      0.56
    22     7  2017    99    4    10.9    1.00     -9      0     -9      0      0    71.7    71.7     15     0.70      1.1      1.1      1.1   100    34.6    15.317    13.5    2.071       99      0.59
    23     7  2017   100    4     9.6    1.00     -9      0     -9      0      0    71.3    71.3     26     0.68      0.4      0.4      0.4   100    34.6    15.491    14.2    2.197       99      0.63
    24     7  2017   101    4    11.2    1.00     -9      0     -9      0      0    70.8    70.8     13     0.65      1.1      1.1      1.1   100    34.6    15.687    14.8    2.328       99      0.66
    25     7  2017   102    4    10.5    1.00     -9      0     -9      0      0    70.2    70.2     18     0.63      0.5      0.5      0.5   100    34.6    15.866    15.5    2.459       99      0.70
    26     7  2017   103    4    11.4    1.00     -9      0     -9      0      0    69.6    69.6     12     0.60      0.7      0.7      0.7   100    34.6    16.050    16.2    2.593       99      0.73
    27     7  2017   104    4    13.3    1.00     -9      0     -9      0      0    68.8    68.8      5     0.57      1.2      1.2      1.2   100    34.6    16.237    16.8    2.731       99      0.77
    28     7  2017   105    4    13.4    1.00     -9      0     -9      0      0    67.9    67.9      5     0.54      1.7      1.7      1.7   100    34.6    16.414    17.5    2.869       99      0.80
    29     7  2017   106    4    14.1    1.00     -9      0     -9      0      0    66.9    66.9      3     0.50      1.3      1.3      1.3   100    34.6    16.581    18.1    3.007       99      0.84
    30     7  2017   107    4    12.6    1.00     -9      0     -9      0      0    65.9    65.9      7     0.46      0.7      0.7      0.7   100    34.6    16.730    18.8    3.144       99      0.87
    31     7  2017   108    4    11.1    1.00     -9      0     -9      0      0    65.0    65.0     14     0.43      0.6      0.6      0.6   100    34.6    16.858    19.5    3.280       99      0.91
     1     8  2017   109    4    10.3    1.00     -9      0     -9      0      0    64.1    64.1     20     0.40      0.5      0.5      0.5   100    34.6    16.970    20.1    3.413       99      0.94
     2     8  2017   110    4    11.7    1.00     -9      0     -9      0      0    62.9    62.9     11     0.37      0.9      0.9      0.9   100    34.6    17.085    20.8    3.549       99      0.98
     3     8  2017   111    4    11.6    1.00     -9      0     -9      0      0    61.7    61.7     11     0.34      0.6      0.6      0.6   100    34.6    17.189    21.4    3.684       99      1.01
     4     8  2017   112    4    10.6    1.00     -9      0     -9      0      0    60.5    60.5     18     0.31      0.3      0.3      0.3   100    34.6    17.276    22.1    3.816       99      1.04
     5     8  2017   113    4    10.9    1.00     -9      0     -9      0      0    59.2    59.2     15     0.28      0.3      0.3      0.3   100    34.6    17.357    22.7    3.949       99      1.08
     6     8  2017   114    4    11.1    1.00     -9      0     -9      0      0    57.7    57.7     14     0.25      0.3      0.3      0.3   100    34.6    17.430    23.4    4.080       99      1.11
     7     8  2017   115    4    12.3    1.00     -9      0     -9      0      0    56.0    56.0      8     0.21      0.6      0.6      0.6   100    34.6    17.497    24.1    4.211       99      1.14
     8     8  2017   116    4    12.3    1.00     -9      0     -9      0      0    54.1    54.1      8     0.18      0.2      0.2      0.2   100    34.6    17.555    24.7    4.341       99      1.18
     9     8  2017   117    4    12.3    1.00     -9      0     -9      0      0    52.1    52.1      8     0.15      0.4      0.4      0.4   100    34.6    17.602    25.4    4.468       99      1.21
    10     8  2017   118    4    11.4    1.00     -9      0     -9      0      0    50.0    50.0     12     0.12      0.1      0.1      0.1   100    34.6    17.640    26.0    4.594       99      1.24
    11     8  2017   119    4    12.2    1.00     -9      0     -9      0      0    47.7    47.7      8     0.10      0.3      0.3      0.3   100    34.6    17.671    26.7    4.719       99      1.27
    12     8  2017   120    4    10.9    1.00     -9      0     -9      0      0    45.4    45.4     15     0.08      0.1      0.1      0.1   100    34.6    17.694    27.4    4.842       99      1.30
    13     8  2017   121    4    10.4    1.00     -9      0     -9      0      0    43.0    43.0     19     0.06      0.1      0.1      0.1   100    34.6    17.711    28.0    4.963       99      1.33
    14     8  2017   122    4    10.7    1.00     -9      0     -9      0      0    40.5    40.5     17     0.04      0.0      0.0      0.0   100    34.6    17.723    28.7    5.083       99      1.36
    15     8  2017   123    4    11.7    1.00     -9      0     -9      0      0    37.4    37.4     11     0.03      0.1      0.1      0.1   100    34.6    17.733    29.3    5.203       99      1.39
    16     8  2017   124    4    11.3    1.00     -9      0     -9      0      0    34.3    34.3     13     0.02      0.0      0.0      0.0   100    34.6    17.739    30.0    5.322       99      1.42
    17     8  2017   125    4    12.5    1.00     -9      0     -9      0      0    30.5    30.5      7     0.01      0.0      0.0      0.0   100    34.6    17.743    30.0    5.323       99      1.42
    18     8  2017   126    4    12.2    1.00     -9      0     -9      0      0    26.5    26.5      8     0.01      0.0      0.0      0.0   100    34.6    17.744    30.0    5.323       99      1.42
    19     8  2017   127    4    13.3    1.00     -9      0     -9      0      0    21.7    21.7      5     0.00      0.0      0.0      0.0   100    34.6    17.745    30.0    5.324       99      1.41
    20     8  2017   128    4    11.8    1.00     -9      0     -9      0      0    17.1    17.1     10     0.00      0.0      0.0      0.0   100    34.6    17.745    30.0    5.324       99      1.41
    21     8  2017   129    4    10.5    1.00     -9      0     -9      0      0    12.7    12.7     18     0.00      0.0      0.0      0.0   100    34.6    17.745    30.0    5.324       99      1.40
    22     8  2017   130    4    11.2    1.00     -9      0     -9      0      0     7.7     7.7     13     0.00      0.0      0.0      0.0   100    34.6    17.745    30.0    5.324       99      1.40
    23     8  2017   131    4    10.0    1.00     -9     -9     -9      0     -9     0.0     0.0      0    -9.00      0.0      0.0      0.0   100    34.6    17.745    30.0    5.324       99      1.40

Legend

DAP          : Days after planting
Stage        : 0: before/after planting
Stage        : 1: emergence or transplant recovery
Stage        : 2: vegetative stage
Stage        : 3: flowering
Stage        : 4: yield formation and ripening
GD           : Growing degrees
Z            : Effective rooting depth
StExp        : Percent water stress reducing leaf expansion
StSto        : Percent water stress inducing stomatal closure
StSen        : Percent water stress triggering early canopy senescence
StSalt       : Percent salinity stress
StWeed       : Relative cover of weeds
CC           : Green total Canopy Cover of crop and weeds
CCw          : Green crop Canopy Cover in weed infested field
StTr         : Percent temperature stress affecting crop transpiration
Kc(Tr)       : Crop coefficient for transpiration
Trx          : Maximum total transpiration of crop and weeds
Tr           : Total transpiration of crop and weeds
TrW          : Crop transpiration in weed infested field
Tr/Trx       : Relative total transpiration of crop and weeds (100 Tr/Trx)
WP           : Crop water productivity adjusted for CO2, soil fertility and products synthesized
Biomass      : Cumulative crop biomass
HI           : Harvest Index adjusted for failure of pollination, inadequate photosynthesis and water stress
Yield Part   : Crop yield (HI x Biomass)
Brelative    : Relative biomass (Reference: no water, no soil fertility, no soil salinity stress, no weed infestation)
WPet         : ET Water productivity for yield part (kg yield produced per m3 water evapotranspired)
